432

C -1.92047 -5.87969 0.18461
C 0.61804 -5.89261 0.23875
C -0.63736 -5.14452 -0.27155
H 0.59503 -5.91365 1.35378
H 0.6704 -2.93111 -1.31631
C 0.64324 -2.95272 -0.20134
C -0.64192 -3.68776 0.25031
H -0.61261 -5.12506 -1.38659
C -1.89426 -2.9393 -0.266
C -3.18139 -3.67135 0.18637
C -3.17648 -5.13448 -0.32965
H -3.14913 -5.11869 -1.4447
H -1.94554 -5.89731 1.29958
H -0.66941 -3.70726 1.36524
H -1.86566 -2.92132 -1.38091
H -3.20854 -3.68723 1.3014
C -1.89633 -1.48219 0.25526
C 0.63991 -1.49695 0.32406
C -0.60898 -0.74751 -0.19329
C -3.14309 -0.73174 -0.26601
H -1.92809 -1.50038 1.3701
H 0.61022 -1.51842 1.43893
H -3.10908 -0.71507 -1.38111
H -0.57765 -0.72794 -1.30835
C -4.43861 -1.45902 0.18003
C -4.43742 -2.92172 -0.32993
C -4.46403 -5.87075 0.12442
C -5.66657 -0.68776 -0.34184
C -5.70656 -3.66805 0.12262
C -5.70149 -5.11138 -0.39005
H -5.68007 -0.68666 -1.454
H -4.48028 -1.47131 1.29354
H -4.41736 -2.9093 -1.44405
H -5.78238 -3.66949 1.2322
H -5.72256 -5.10951 -1.502
H -4.4988 -5.88284 1.23812
C -5.65887 0.75739 0.16872
C -4.37705 1.47768 -0.26282
C -3.13893 0.72922 0.25276
C -1.85494 1.4539 -0.18633
C -0.61147 0.71094 0.32887
C 0.67223 1.43972 -0.10833
H -5.74033 0.76491 1.27692
H -3.17301 0.72495 1.36571
H -0.6449 0.70407 1.44174
H -4.35346 1.54843 -1.37273
H -1.82075 1.52269 -1.29715
H 0.70544 1.51239 -1.21887
C 0.62306 5.90932 -0.28582
C -0.65595 5.17335 0.17382
C -1.91279 5.92095 -0.33592
H 0.64364 5.93019 -1.40095
C -0.64914 3.71439 -0.34698
H -0.67703 5.15471 1.28906
C -1.92338 2.98502 0.10862
C -3.17684 3.72253 -0.39303
C -3.1911 5.18392 0.12432
H -0.63017 3.72031 -1.46023
H -1.89079 5.93867 -1.45103
H -3.21171 5.16784 1.23976
H -3.15639 3.72613 -1.50635
H -1.94349 2.91731 1.21983
C 0.6053 2.97308 0.15012
H 0.58762 2.90225 1.26108
C -4.45551 5.92435 -0.38494
C -4.44652 2.98747 0.06122
C -5.71567 5.16627 0.07589
C -5.69788 3.72073 -0.43332
H -4.44229 5.93635 -1.49919
H -5.784 5.16613 1.186
H -5.72463 3.71317 -1.5442
H -4.47835 2.91746 1.17098
C 5.67853 -5.87969 0.18461
C 8.21704 -5.89261 0.23875
C 6.96164 -5.14452 -0.27155
H 8.19403 -5.91365 1.35378
H 8.2694 -2.93111 -1.31631
C 8.24224 -2.95272 -0.20134
C 6.95708 -3.68776 0.25031
H 6.98639 -5.12506 -1.38659
C 5.70474 -2.9393 -0.266
C 4.41761 -3.67135 0.18637
C 4.42252 -5.13448 -0.32965
H 4.44987 -5.11869 -1.4447
H 5.65346 -5.89731 1.29958
H 6.92959 -3.70726 1.36524
H 5.73334 -2.92132 -1.38091
H 4.39046 -3.68723 1.3014
C 5.70267 -1.48219 0.25526
C 8.23891 -1.49695 0.32406
C 6.99002 -0.74751 -0.19329
C 4.45591 -0.73174 -0.26601
H 5.67091 -1.50038 1.3701
H 8.20922 -1.51842 1.43893
H 4.48992 -0.71507 -1.38111
H 7.02135 -0.72794 -1.30835
C 3.16039 -1.45902 0.18003
C 3.16158 -2.92172 -0.32993
C 3.13497 -5.87075 0.12442
C 1.93243 -0.68776 -0.34184
C 1.89244 -3.66805 0.12262
C 1.89751 -5.11138 -0.39005
H 1.91893 -0.68666 -1.454
H 3.11872 -1.47131 1.29354
H 3.18164 -2.9093 -1.44405
H 1.81662 -3.66949 1.2322
H 1.87644 -5.10951 -1.502
H 3.1002 -5.88284 1.23812
C 1.94013 0.75739 0.16872
C 3.22195 1.47768 -0.26282
C 4.46007 0.72922 0.25276
C 5.74406 1.4539 -0.18633
C 6.98753 0.71094 0.32887
C 8.27123 1.43972 -0.10833
H 1.85867 0.76491 1.27692
H 4.42599 0.72495 1.36571
H 6.9541 0.70407 1.44174
H 3.24554 1.54843 -1.37273
H 5.77825 1.52269 -1.29715
H 8.30444 1.51239 -1.21887
C 8.22206 5.90932 -0.28582
C 6.94305 5.17335 0.17382
C 5.68621 5.92095 -0.33592
H 8.24264 5.93019 -1.40095
C 6.94986 3.71439 -0.34698
H 6.92197 5.15471 1.28906
C 5.67562 2.98502 0.10862
C 4.42216 3.72253 -0.39303
C 4.4079 5.18392 0.12432
H 6.96883 3.72031 -1.46023
H 5.70821 5.93867 -1.45103
H 4.38729 5.16784 1.23976
H 4.44261 3.72613 -1.50635
H 5.65551 2.91731 1.21983
C 8.2043 2.97308 0.15012
H 8.18662 2.90225 1.26108
C 3.14349 5.92435 -0.38494
C 3.15248 2.98747 0.06122
C 1.88333 5.16627 0.07589
C 1.90112 3.72073 -0.43332
H 3.15671 5.93635 -1.49919
H 1.815 5.16613 1.186
H 1.87437 3.71317 -1.5442
H 3.12065 2.91746 1.17098
C 13.27753 -5.87969 0.18461
C 15.81604 -5.89261 0.23875
C 14.56064 -5.14452 -0.27155
H 15.79303 -5.91365 1.35378
H 15.8684 -2.93111 -1.31631
C 15.84124 -2.95272 -0.20134
C 14.55608 -3.68776 0.25031
H 14.58539 -5.12506 -1.38659
C 13.30374 -2.9393 -0.266
C 12.01661 -3.67135 0.18637
C 12.02152 -5.13448 -0.32965
H 12.04887 -5.11869 -1.4447
H 13.25246 -5.89731 1.29958
H 14.52859 -3.70726 1.36524
H 13.33234 -2.92132 -1.38091
H 11.98946 -3.68723 1.3014
C 13.30167 -1.48219 0.25526
C 15.83791 -1.49695 0.32406
C 14.58902 -0.74751 -0.19329
C 12.05491 -0.73174 -0.26601
H 13.26991 -1.50038 1.3701
H 15.80822 -1.51842 1.43893
H 12.08892 -0.71507 -1.38111
H 14.62035 -0.72794 -1.30835
C 10.75939 -1.45902 0.18003
C 10.76058 -2.92172 -0.32993
C 10.73397 -5.87075 0.12442
C 9.53143 -0.68776 -0.34184
C 9.49144 -3.66805 0.12262
C 9.49651 -5.11138 -0.39005
H 9.51793 -0.68666 -1.454
H 10.71772 -1.47131 1.29354
H 10.78064 -2.9093 -1.44405
H 9.41562 -3.66949 1.2322
H 9.47544 -5.10951 -1.502
H 10.6992 -5.88284 1.23812
C 9.53913 0.75739 0.16872
C 10.82095 1.47768 -0.26282
C 12.05907 0.72922 0.25276
C 13.34306 1.4539 -0.18633
C 14.58653 0.71094 0.32887
C 15.87023 1.43972 -0.10833
H 9.45767 0.76491 1.27692
H 12.02499 0.72495 1.36571
H 14.5531 0.70407 1.44174
H 10.84454 1.54843 -1.37273
H 13.37725 1.52269 -1.29715
H 15.90344 1.51239 -1.21887
C 15.82106 5.90932 -0.28582
C 14.54205 5.17335 0.17382
C 13.28521 5.92095 -0.33592
H 15.84164 5.93019 -1.40095
C 14.54886 3.71439 -0.34698
H 14.52097 5.15471 1.28906
C 13.27462 2.98502 0.10862
C 12.02116 3.72253 -0.39303
C 12.0069 5.18392 0.12432
H 14.56783 3.72031 -1.46023
H 13.30721 5.93867 -1.45103
H 11.98629 5.16784 1.23976
H 12.04161 3.72613 -1.50635
H 13.25451 2.91731 1.21983
C 15.8033 2.97308 0.15012
H 15.78562 2.90225 1.26108
C 10.74249 5.92435 -0.38494
C 10.75148 2.98747 0.06122
C 9.48233 5.16627 0.07589
C 9.50012 3.72073 -0.43332
H 10.75571 5.93635 -1.49919
H 9.414 5.16613 1.186
H 9.47337 3.71317 -1.5442
H 10.71965 2.91746 1.17098
C -1.92047 -5.87969 15.18461
C 0.61804 -5.89261 15.23875
C -0.63736 -5.14452 14.72845
H 0.59503 -5.91365 16.35378
H 0.6704 -2.93111 13.68369
C 0.64324 -2.95272 14.79866
C -0.64192 -3.68776 15.25031
H -0.61261 -5.12506 13.61341
C -1.89426 -2.9393 14.734
C -3.18139 -3.67135 15.18637
C -3.17648 -5.13448 14.67035
H -3.14913 -5.11869 13.5553
H -1.94554 -5.89731 16.29958
H -0.66941 -3.70726 16.36524
H -1.86566 -2.92132 13.61909
H -3.20854 -3.68723 16.3014
C -1.89633 -1.48219 15.25526
C 0.63991 -1.49695 15.32406
C -0.60898 -0.74751 14.80671
C -3.14309 -0.73174 14.73399
H -1.92809 -1.50038 16.3701
H 0.61022 -1.51842 16.43893
H -3.10908 -0.71507 13.61889
H -0.57765 -0.72794 13.69165
C -4.43861 -1.45902 15.18003
C -4.43742 -2.92172 14.67007
C -4.46403 -5.87075 15.12442
C -5.66657 -0.68776 14.65816
C -5.70656 -3.66805 15.12262
C -5.70149 -5.11138 14.60995
H -5.68007 -0.68666 13.546
H -4.48028 -1.47131 16.29354
H -4.41736 -2.9093 13.55595
H -5.78238 -3.66949 16.2322
H -5.72256 -5.10951 13.498
H -4.4988 -5.88284 16.23812
C -5.65887 0.75739 15.16872
C -4.37705 1.47768 14.73718
C -3.13893 0.72922 15.25276
C -1.85494 1.4539 14.81367
C -0.61147 0.71094 15.32887
C 0.67223 1.43972 14.89167
H -5.74033 0.76491 16.27692
H -3.17301 0.72495 16.36571
H -0.6449 0.70407 16.44174
H -4.35346 1.54843 13.62727
H -1.82075 1.52269 13.70285
H 0.70544 1.51239 13.78113
C 0.62306 5.90932 14.71418
C -0.65595 5.17335 15.17382
C -1.91279 5.92095 14.66408
H 0.64364 5.93019 13.59905
C -0.64914 3.71439 14.65302
H -0.67703 5.15471 16.28906
C -1.92338 2.98502 15.10862
C -3.17684 3.72253 14.60697
C -3.1911 5.18392 15.12432
H -0.63017 3.72031 13.53977
H -1.89079 5.93867 13.54897
H -3.21171 5.16784 16.23976
H -3.15639 3.72613 13.49365
H -1.94349 2.91731 16.21983
C 0.6053 2.97308 15.15012
H 0.58762 2.90225 16.26108
C -4.45551 5.92435 14.61506
C -4.44652 2.98747 15.06122
C -5.71567 5.16627 15.07589
C -5.69788 3.72073 14.56668
H -4.44229 5.93635 13.50081
H -5.784 5.16613 16.186
H -5.72463 3.71317 13.4558
H -4.47835 2.91746 16.17098
C 5.67853 -5.87969 15.18461
C 8.21704 -5.89261 15.23875
C 6.96164 -5.14452 14.72845
H 8.19403 -5.91365 16.35378
H 8.2694 -2.93111 13.68369
C 8.24224 -2.95272 14.79866
C 6.95708 -3.68776 15.25031
H 6.98639 -5.12506 13.61341
C 5.70474 -2.9393 14.734
C 4.41761 -3.67135 15.18637
C 4.42252 -5.13448 14.67035
H 4.44987 -5.11869 13.5553
H 5.65346 -5.89731 16.29958
H 6.92959 -3.70726 16.36524
H 5.73334 -2.92132 13.61909
H 4.39046 -3.68723 16.3014
C 5.70267 -1.48219 15.25526
C 8.23891 -1.49695 15.32406
C 6.99002 -0.74751 14.80671
C 4.45591 -0.73174 14.73399
H 5.67091 -1.50038 16.3701
H 8.20922 -1.51842 16.43893
H 4.48992 -0.71507 13.61889
H 7.02135 -0.72794 13.69165
C 3.16039 -1.45902 15.18003
C 3.16158 -2.92172 14.67007
C 3.13497 -5.87075 15.12442
C 1.93243 -0.68776 14.65816
C 1.89244 -3.66805 15.12262
C 1.89751 -5.11138 14.60995
H 1.91893 -0.68666 13.546
H 3.11872 -1.47131 16.29354
H 3.18164 -2.9093 13.55595
H 1.81662 -3.66949 16.2322
H 1.87644 -5.10951 13.498
H 3.1002 -5.88284 16.23812
C 1.94013 0.75739 15.16872
C 3.22195 1.47768 14.73718
C 4.46007 0.72922 15.25276
C 5.74406 1.4539 14.81367
C 6.98753 0.71094 15.32887
C 8.27123 1.43972 14.89167
H 1.85867 0.76491 16.27692
H 4.42599 0.72495 16.36571
H 6.9541 0.70407 16.44174
H 3.24554 1.54843 13.62727
H 5.77825 1.52269 13.70285
H 8.30444 1.51239 13.78113
C 8.22206 5.90932 14.71418
C 6.94305 5.17335 15.17382
C 5.68621 5.92095 14.66408
H 8.24264 5.93019 13.59905
C 6.94986 3.71439 14.65302
H 6.92197 5.15471 16.28906
C 5.67562 2.98502 15.10862
C 4.42216 3.72253 14.60697
C 4.4079 5.18392 15.12432
H 6.96883 3.72031 13.53977
H 5.70821 5.93867 13.54897
H 4.38729 5.16784 16.23976
H 4.44261 3.72613 13.49365
H 5.65551 2.91731 16.21983
C 8.2043 2.97308 15.15012
H 8.18662 2.90225 16.26108
C 3.14349 5.92435 14.61506
C 3.15248 2.98747 15.06122
C 1.88333 5.16627 15.07589
C 1.90112 3.72073 14.56668
H 3.15671 5.93635 13.50081
H 1.815 5.16613 16.186
H 1.87437 3.71317 13.4558
H 3.12065 2.91746 16.17098
C 13.27753 -5.87969 15.18461
C 15.81604 -5.89261 15.23875
C 14.56064 -5.14452 14.72845
H 15.79303 -5.91365 16.35378
H 15.8684 -2.93111 13.68369
C 15.84124 -2.95272 14.79866
C 14.55608 -3.68776 15.25031
H 14.58539 -5.12506 13.61341
C 13.30374 -2.9393 14.734
C 12.01661 -3.67135 15.18637
C 12.02152 -5.13448 14.67035
H 12.04887 -5.11869 13.5553
H 13.25246 -5.89731 16.29958
H 14.52859 -3.70726 16.36524
H 13.33234 -2.92132 13.61909
H 11.98946 -3.68723 16.3014
C 13.30167 -1.48219 15.25526
C 15.83791 -1.49695 15.32406
C 14.58902 -0.74751 14.80671
C 12.05491 -0.73174 14.73399
H 13.26991 -1.50038 16.3701
H 15.80822 -1.51842 16.43893
H 12.08892 -0.71507 13.61889
H 14.62035 -0.72794 13.69165
C 10.75939 -1.45902 15.18003
C 10.76058 -2.92172 14.67007
C 10.73397 -5.87075 15.12442
C 9.53143 -0.68776 14.65816
C 9.49144 -3.66805 15.12262
C 9.49651 -5.11138 14.60995
H 9.51793 -0.68666 13.546
H 10.71772 -1.47131 16.29354
H 10.78064 -2.9093 13.55595
H 9.41562 -3.66949 16.2322
H 9.47544 -5.10951 13.498
H 10.6992 -5.88284 16.23812
C 9.53913 0.75739 15.16872
C 10.82095 1.47768 14.73718
C 12.05907 0.72922 15.25276
C 13.34306 1.4539 14.81367
C 14.58653 0.71094 15.32887
C 15.87023 1.43972 14.89167
H 9.45767 0.76491 16.27692
H 12.02499 0.72495 16.36571
H 14.5531 0.70407 16.44174
H 10.84454 1.54843 13.62727
H 13.37725 1.52269 13.70285
H 15.90344 1.51239 13.78113
C 15.82106 5.90932 14.71418
C 14.54205 5.17335 15.17382
C 13.28521 5.92095 14.66408
H 15.84164 5.93019 13.59905
C 14.54886 3.71439 14.65302
H 14.52097 5.15471 16.28906
C 13.27462 2.98502 15.10862
C 12.02116 3.72253 14.60697
C 12.0069 5.18392 15.12432
H 14.56783 3.72031 13.53977
H 13.30721 5.93867 13.54897
H 11.98629 5.16784 16.23976
H 12.04161 3.72613 13.49365
H 13.25451 2.91731 16.21983
C 15.8033 2.97308 15.15012
H 15.78562 2.90225 16.26108
C 10.74249 5.92435 14.61506
C 10.75148 2.98747 15.06122
C 9.48233 5.16627 15.07589
C 9.50012 3.72073 14.56668
H 10.75571 5.93635 13.50081
H 9.414 5.16613 16.186
H 9.47337 3.71317 13.4558
H 10.71965 2.91746 16.17098
