1440

C -1.92047 -5.87969 0.18461
C 0.61804 -5.89261 0.23875
C -0.63736 -5.14452 -0.27155
H 0.59503 -5.91365 1.35378
H 0.6704 -2.93111 -1.31631
C 0.64324 -2.95272 -0.20134
C -0.64192 -3.68776 0.25031
H -0.61261 -5.12506 -1.38659
C -1.89426 -2.9393 -0.266
C -3.18139 -3.67135 0.18637
C -3.17648 -5.13448 -0.32965
H -3.14913 -5.11869 -1.4447
H -1.94554 -5.89731 1.29958
H -0.66941 -3.70726 1.36524
H -1.86566 -2.92132 -1.38091
H -3.20854 -3.68723 1.3014
C -1.89633 -1.48219 0.25526
C 0.63991 -1.49695 0.32406
C -0.60898 -0.74751 -0.19329
C -3.14309 -0.73174 -0.26601
H -1.92809 -1.50038 1.3701
H 0.61022 -1.51842 1.43893
H -3.10908 -0.71507 -1.38111
H -0.57765 -0.72794 -1.30835
C -4.43861 -1.45902 0.18003
C -4.43742 -2.92172 -0.32993
C -4.46403 -5.87075 0.12442
C -5.66657 -0.68776 -0.34184
C -5.70656 -3.66805 0.12262
C -5.70149 -5.11138 -0.39005
H -5.68007 -0.68666 -1.454
H -4.48028 -1.47131 1.29354
H -4.41736 -2.9093 -1.44405
H -5.78238 -3.66949 1.2322
H -5.72256 -5.10951 -1.502
H -4.4988 -5.88284 1.23812
C -5.65887 0.75739 0.16872
C -4.37705 1.47768 -0.26282
C -3.13893 0.72922 0.25276
C -1.85494 1.4539 -0.18633
C -0.61147 0.71094 0.32887
C 0.67223 1.43972 -0.10833
H -5.74033 0.76491 1.27692
H -3.17301 0.72495 1.36571
H -0.6449 0.70407 1.44174
H -4.35346 1.54843 -1.37273
H -1.82075 1.52269 -1.29715
H 0.70544 1.51239 -1.21887
C 0.62306 5.90932 -0.28582
C -0.65595 5.17335 0.17382
C -1.91279 5.92095 -0.33592
H 0.64364 5.93019 -1.40095
C -0.64914 3.71439 -0.34698
H -0.67703 5.15471 1.28906
C -1.92338 2.98502 0.10862
C -3.17684 3.72253 -0.39303
C -3.1911 5.18392 0.12432
H -0.63017 3.72031 -1.46023
H -1.89079 5.93867 -1.45103
H -3.21171 5.16784 1.23976
H -3.15639 3.72613 -1.50635
H -1.94349 2.91731 1.21983
C 0.6053 2.97308 0.15012
H 0.58762 2.90225 1.26108
C -4.45551 5.92435 -0.38494
C -4.44652 2.98747 0.06122
C -5.71567 5.16627 0.07589
C -5.69788 3.72073 -0.43332
H -4.44229 5.93635 -1.49919
H -5.784 5.16613 1.186
H -5.72463 3.71317 -1.5442
H -4.47835 2.91746 1.17098
C 5.67853 -5.87969 0.18461
C 8.21704 -5.89261 0.23875
C 6.96164 -5.14452 -0.27155
H 8.19403 -5.91365 1.35378
H 8.2694 -2.93111 -1.31631
C 8.24224 -2.95272 -0.20134
C 6.95708 -3.68776 0.25031
H 6.98639 -5.12506 -1.38659
C 5.70474 -2.9393 -0.266
C 4.41761 -3.67135 0.18637
C 4.42252 -5.13448 -0.32965
H 4.44987 -5.11869 -1.4447
H 5.65346 -5.89731 1.29958
H 6.92959 -3.70726 1.36524
H 5.73334 -2.92132 -1.38091
H 4.39046 -3.68723 1.3014
C 5.70267 -1.48219 0.25526
C 8.23891 -1.49695 0.32406
C 6.99002 -0.74751 -0.19329
C 4.45591 -0.73174 -0.26601
H 5.67091 -1.50038 1.3701
H 8.20922 -1.51842 1.43893
H 4.48992 -0.71507 -1.38111
H 7.02135 -0.72794 -1.30835
C 3.16039 -1.45902 0.18003
C 3.16158 -2.92172 -0.32993
C 3.13497 -5.87075 0.12442
C 1.93243 -0.68776 -0.34184
C 1.89244 -3.66805 0.12262
C 1.89751 -5.11138 -0.39005
H 1.91893 -0.68666 -1.454
H 3.11872 -1.47131 1.29354
H 3.18164 -2.9093 -1.44405
H 1.81662 -3.66949 1.2322
H 1.87644 -5.10951 -1.502
H 3.1002 -5.88284 1.23812
C 1.94013 0.75739 0.16872
C 3.22195 1.47768 -0.26282
C 4.46007 0.72922 0.25276
C 5.74406 1.4539 -0.18633
C 6.98753 0.71094 0.32887
C 8.27123 1.43972 -0.10833
H 1.85867 0.76491 1.27692
H 4.42599 0.72495 1.36571
H 6.9541 0.70407 1.44174
H 3.24554 1.54843 -1.37273
H 5.77825 1.52269 -1.29715
H 8.30444 1.51239 -1.21887
C 8.22206 5.90932 -0.28582
C 6.94305 5.17335 0.17382
C 5.68621 5.92095 -0.33592
H 8.24264 5.93019 -1.40095
C 6.94986 3.71439 -0.34698
H 6.92197 5.15471 1.28906
C 5.67562 2.98502 0.10862
C 4.42216 3.72253 -0.39303
C 4.4079 5.18392 0.12432
H 6.96883 3.72031 -1.46023
H 5.70821 5.93867 -1.45103
H 4.38729 5.16784 1.23976
H 4.44261 3.72613 -1.50635
H 5.65551 2.91731 1.21983
C 8.2043 2.97308 0.15012
H 8.18662 2.90225 1.26108
C 3.14349 5.92435 -0.38494
C 3.15248 2.98747 0.06122
C 1.88333 5.16627 0.07589
C 1.90112 3.72073 -0.43332
H 3.15671 5.93635 -1.49919
H 1.815 5.16613 1.186
H 1.87437 3.71317 -1.5442
H 3.12065 2.91746 1.17098
C -1.92047 -5.87969 10.18461
C 0.61804 -5.89261 10.23875
C -0.63736 -5.14452 9.72845
H 0.59503 -5.91365 11.35378
H 0.6704 -2.93111 8.68369
C 0.64324 -2.95272 9.79866
C -0.64192 -3.68776 10.25031
H -0.61261 -5.12506 8.61341
C -1.89426 -2.9393 9.734
C -3.18139 -3.67135 10.18637
C -3.17648 -5.13448 9.67035
H -3.14913 -5.11869 8.5553
H -1.94554 -5.89731 11.29958
H -0.66941 -3.70726 11.36524
H -1.86566 -2.92132 8.61909
H -3.20854 -3.68723 11.3014
C -1.89633 -1.48219 10.25526
C 0.63991 -1.49695 10.32406
C -0.60898 -0.74751 9.80671
C -3.14309 -0.73174 9.73399
H -1.92809 -1.50038 11.3701
H 0.61022 -1.51842 11.43893
H -3.10908 -0.71507 8.61889
H -0.57765 -0.72794 8.69165
C -4.43861 -1.45902 10.18003
C -4.43742 -2.92172 9.67007
C -4.46403 -5.87075 10.12442
C -5.66657 -0.68776 9.65816
C -5.70656 -3.66805 10.12262
C -5.70149 -5.11138 9.60995
H -5.68007 -0.68666 8.546
H -4.48028 -1.47131 11.29354
H -4.41736 -2.9093 8.55595
H -5.78238 -3.66949 11.2322
H -5.72256 -5.10951 8.498
H -4.4988 -5.88284 11.23812
C -5.65887 0.75739 10.16872
C -4.37705 1.47768 9.73718
C -3.13893 0.72922 10.25276
C -1.85494 1.4539 9.81367
C -0.61147 0.71094 10.32887
C 0.67223 1.43972 9.89167
H -5.74033 0.76491 11.27692
H -3.17301 0.72495 11.36571
H -0.6449 0.70407 11.44174
H -4.35346 1.54843 8.62727
H -1.82075 1.52269 8.70285
H 0.70544 1.51239 8.78113
C 0.62306 5.90932 9.71418
C -0.65595 5.17335 10.17382
C -1.91279 5.92095 9.66408
H 0.64364 5.93019 8.59905
C -0.64914 3.71439 9.65302
H -0.67703 5.15471 11.28906
C -1.92338 2.98502 10.10862
C -3.17684 3.72253 9.60697
C -3.1911 5.18392 10.12432
H -0.63017 3.72031 8.53977
H -1.89079 5.93867 8.54897
H -3.21171 5.16784 11.23976
H -3.15639 3.72613 8.49365
H -1.94349 2.91731 11.21983
C 0.6053 2.97308 10.15012
H 0.58762 2.90225 11.26108
C -4.45551 5.92435 9.61506
C -4.44652 2.98747 10.06122
C -5.71567 5.16627 10.07589
C -5.69788 3.72073 9.56668
H -4.44229 5.93635 8.50081
H -5.784 5.16613 11.186
H -5.72463 3.71317 8.4558
H -4.47835 2.91746 11.17098
C 5.67853 -5.87969 10.18461
C 8.21704 -5.89261 10.23875
C 6.96164 -5.14452 9.72845
H 8.19403 -5.91365 11.35378
H 8.2694 -2.93111 8.68369
C 8.24224 -2.95272 9.79866
C 6.95708 -3.68776 10.25031
H 6.98639 -5.12506 8.61341
C 5.70474 -2.9393 9.734
C 4.41761 -3.67135 10.18637
C 4.42252 -5.13448 9.67035
H 4.44987 -5.11869 8.5553
H 5.65346 -5.89731 11.29958
H 6.92959 -3.70726 11.36524
H 5.73334 -2.92132 8.61909
H 4.39046 -3.68723 11.3014
C 5.70267 -1.48219 10.25526
C 8.23891 -1.49695 10.32406
C 6.99002 -0.74751 9.80671
C 4.45591 -0.73174 9.73399
H 5.67091 -1.50038 11.3701
H 8.20922 -1.51842 11.43893
H 4.48992 -0.71507 8.61889
H 7.02135 -0.72794 8.69165
C 3.16039 -1.45902 10.18003
C 3.16158 -2.92172 9.67007
C 3.13497 -5.87075 10.12442
C 1.93243 -0.68776 9.65816
C 1.89244 -3.66805 10.12262
C 1.89751 -5.11138 9.60995
H 1.91893 -0.68666 8.546
H 3.11872 -1.47131 11.29354
H 3.18164 -2.9093 8.55595
H 1.81662 -3.66949 11.2322
H 1.87644 -5.10951 8.498
H 3.1002 -5.88284 11.23812
C 1.94013 0.75739 10.16872
C 3.22195 1.47768 9.73718
C 4.46007 0.72922 10.25276
C 5.74406 1.4539 9.81367
C 6.98753 0.71094 10.32887
C 8.27123 1.43972 9.89167
H 1.85867 0.76491 11.27692
H 4.42599 0.72495 11.36571
H 6.9541 0.70407 11.44174
H 3.24554 1.54843 8.62727
H 5.77825 1.52269 8.70285
H 8.30444 1.51239 8.78113
C 8.22206 5.90932 9.71418
C 6.94305 5.17335 10.17382
C 5.68621 5.92095 9.66408
H 8.24264 5.93019 8.59905
C 6.94986 3.71439 9.65302
H 6.92197 5.15471 11.28906
C 5.67562 2.98502 10.10862
C 4.42216 3.72253 9.60697
C 4.4079 5.18392 10.12432
H 6.96883 3.72031 8.53977
H 5.70821 5.93867 8.54897
H 4.38729 5.16784 11.23976
H 4.44261 3.72613 8.49365
H 5.65551 2.91731 11.21983
C 8.2043 2.97308 10.15012
H 8.18662 2.90225 11.26108
C 3.14349 5.92435 9.61506
C 3.15248 2.98747 10.06122
C 1.88333 5.16627 10.07589
C 1.90112 3.72073 9.56668
H 3.15671 5.93635 8.50081
H 1.815 5.16613 11.186
H 1.87437 3.71317 8.4558
H 3.12065 2.91746 11.17098
C 13.43041 -5.87969 0.18461
C 15.96892 -5.89261 0.23875
C 14.71352 -5.14452 -0.27155
H 15.94591 -5.91365 1.35378
H 16.02128 -2.93111 -1.31631
C 15.99412 -2.95272 -0.20134
C 14.70896 -3.68776 0.25031
H 14.73827 -5.12506 -1.38659
C 13.45662 -2.9393 -0.266
C 12.16949 -3.67135 0.18637
C 12.1744 -5.13448 -0.32965
H 12.20175 -5.11869 -1.4447
H 13.40534 -5.89731 1.29958
H 14.68147 -3.70726 1.36524
H 13.48522 -2.92132 -1.38091
H 12.14234 -3.68723 1.3014
C 13.45455 -1.48219 0.25526
C 15.99079 -1.49695 0.32406
C 14.7419 -0.74751 -0.19329
C 12.20779 -0.73174 -0.26601
H 13.42279 -1.50038 1.3701
H 15.9611 -1.51842 1.43893
H 12.2418 -0.71507 -1.38111
H 14.77323 -0.72794 -1.30835
C 10.91227 -1.45902 0.18003
C 10.91346 -2.92172 -0.32993
C 10.88685 -5.87075 0.12442
C 9.68431 -0.68776 -0.34184
C 9.64432 -3.66805 0.12262
C 9.64939 -5.11138 -0.39005
H 9.67081 -0.68666 -1.454
H 10.8706 -1.47131 1.29354
H 10.93352 -2.9093 -1.44405
H 9.5685 -3.66949 1.2322
H 9.62832 -5.10951 -1.502
H 10.85208 -5.88284 1.23812
C 9.69201 0.75739 0.16872
C 10.97383 1.47768 -0.26282
C 12.21195 0.72922 0.25276
C 13.49594 1.4539 -0.18633
C 14.73941 0.71094 0.32887
C 16.02311 1.43972 -0.10833
H 9.61055 0.76491 1.27692
H 12.17787 0.72495 1.36571
H 14.70598 0.70407 1.44174
H 10.99742 1.54843 -1.37273
H 13.53013 1.52269 -1.29715
H 16.05632 1.51239 -1.21887
C 15.97394 5.90932 -0.28582
C 14.69493 5.17335 0.17382
C 13.43809 5.92095 -0.33592
H 15.99452 5.93019 -1.40095
C 14.70174 3.71439 -0.34698
H 14.67385 5.15471 1.28906
C 13.4275 2.98502 0.10862
C 12.17404 3.72253 -0.39303
C 12.15978 5.18392 0.12432
H 14.72071 3.72031 -1.46023
H 13.46009 5.93867 -1.45103
H 12.13917 5.16784 1.23976
H 12.19449 3.72613 -1.50635
H 13.40739 2.91731 1.21983
C 15.95618 2.97308 0.15012
H 15.9385 2.90225 1.26108
C 10.89537 5.92435 -0.38494
C 10.90436 2.98747 0.06122
C 9.63521 5.16627 0.07589
C 9.653 3.72073 -0.43332
H 10.90859 5.93635 -1.49919
H 9.56688 5.16613 1.186
H 9.62625 3.71317 -1.5442
H 10.87253 2.91746 1.17098
C 21.02941 -5.87969 0.18461
C 23.56792 -5.89261 0.23875
C 22.31252 -5.14452 -0.27155
H 23.54491 -5.91365 1.35378
H 23.62028 -2.93111 -1.31631
C 23.59312 -2.95272 -0.20134
C 22.30796 -3.68776 0.25031
H 22.33727 -5.12506 -1.38659
C 21.05562 -2.9393 -0.266
C 19.76849 -3.67135 0.18637
C 19.7734 -5.13448 -0.32965
H 19.80075 -5.11869 -1.4447
H 21.00434 -5.89731 1.29958
H 22.28047 -3.70726 1.36524
H 21.08422 -2.92132 -1.38091
H 19.74134 -3.68723 1.3014
C 21.05355 -1.48219 0.25526
C 23.58979 -1.49695 0.32406
C 22.3409 -0.74751 -0.19329
C 19.80679 -0.73174 -0.26601
H 21.02179 -1.50038 1.3701
H 23.5601 -1.51842 1.43893
H 19.8408 -0.71507 -1.38111
H 22.37223 -0.72794 -1.30835
C 18.51127 -1.45902 0.18003
C 18.51246 -2.92172 -0.32993
C 18.48585 -5.87075 0.12442
C 17.28331 -0.68776 -0.34184
C 17.24332 -3.66805 0.12262
C 17.24839 -5.11138 -0.39005
H 17.26981 -0.68666 -1.454
H 18.4696 -1.47131 1.29354
H 18.53252 -2.9093 -1.44405
H 17.1675 -3.66949 1.2322
H 17.22732 -5.10951 -1.502
H 18.45108 -5.88284 1.23812
C 17.29101 0.75739 0.16872
C 18.57283 1.47768 -0.26282
C 19.81095 0.72922 0.25276
C 21.09494 1.4539 -0.18633
C 22.33841 0.71094 0.32887
C 23.62211 1.43972 -0.10833
H 17.20955 0.76491 1.27692
H 19.77687 0.72495 1.36571
H 22.30498 0.70407 1.44174
H 18.59642 1.54843 -1.37273
H 21.12913 1.52269 -1.29715
H 23.65532 1.51239 -1.21887
C 23.57294 5.90932 -0.28582
C 22.29393 5.17335 0.17382
C 21.03709 5.92095 -0.33592
H 23.59352 5.93019 -1.40095
C 22.30074 3.71439 -0.34698
H 22.27285 5.15471 1.28906
C 21.0265 2.98502 0.10862
C 19.77304 3.72253 -0.39303
C 19.75878 5.18392 0.12432
H 22.31971 3.72031 -1.46023
H 21.05909 5.93867 -1.45103
H 19.73817 5.16784 1.23976
H 19.79349 3.72613 -1.50635
H 21.00639 2.91731 1.21983
C 23.55518 2.97308 0.15012
H 23.5375 2.90225 1.26108
C 18.49437 5.92435 -0.38494
C 18.50336 2.98747 0.06122
C 17.23421 5.16627 0.07589
C 17.252 3.72073 -0.43332
H 18.50759 5.93635 -1.49919
H 17.16588 5.16613 1.186
H 17.22525 3.71317 -1.5442
H 18.47153 2.91746 1.17098
C 13.43041 -5.87969 10.18461
C 15.96892 -5.89261 10.23875
C 14.71352 -5.14452 9.72845
H 15.94591 -5.91365 11.35378
H 16.02128 -2.93111 8.68369
C 15.99412 -2.95272 9.79866
C 14.70896 -3.68776 10.25031
H 14.73827 -5.12506 8.61341
C 13.45662 -2.9393 9.734
C 12.16949 -3.67135 10.18637
C 12.1744 -5.13448 9.67035
H 12.20175 -5.11869 8.5553
H 13.40534 -5.89731 11.29958
H 14.68147 -3.70726 11.36524
H 13.48522 -2.92132 8.61909
H 12.14234 -3.68723 11.3014
C 13.45455 -1.48219 10.25526
C 15.99079 -1.49695 10.32406
C 14.7419 -0.74751 9.80671
C 12.20779 -0.73174 9.73399
H 13.42279 -1.50038 11.3701
H 15.9611 -1.51842 11.43893
H 12.2418 -0.71507 8.61889
H 14.77323 -0.72794 8.69165
C 10.91227 -1.45902 10.18003
C 10.91346 -2.92172 9.67007
C 10.88685 -5.87075 10.12442
C 9.68431 -0.68776 9.65816
C 9.64432 -3.66805 10.12262
C 9.64939 -5.11138 9.60995
H 9.67081 -0.68666 8.546
H 10.8706 -1.47131 11.29354
H 10.93352 -2.9093 8.55595
H 9.5685 -3.66949 11.2322
H 9.62832 -5.10951 8.498
H 10.85208 -5.88284 11.23812
C 9.69201 0.75739 10.16872
C 10.97383 1.47768 9.73718
C 12.21195 0.72922 10.25276
C 13.49594 1.4539 9.81367
C 14.73941 0.71094 10.32887
C 16.02311 1.43972 9.89167
H 9.61055 0.76491 11.27692
H 12.17787 0.72495 11.36571
H 14.70598 0.70407 11.44174
H 10.99742 1.54843 8.62727
H 13.53013 1.52269 8.70285
H 16.05632 1.51239 8.78113
C 15.97394 5.90932 9.71418
C 14.69493 5.17335 10.17382
C 13.43809 5.92095 9.66408
H 15.99452 5.93019 8.59905
C 14.70174 3.71439 9.65302
H 14.67385 5.15471 11.28906
C 13.4275 2.98502 10.10862
C 12.17404 3.72253 9.60697
C 12.15978 5.18392 10.12432
H 14.72071 3.72031 8.53977
H 13.46009 5.93867 8.54897
H 12.13917 5.16784 11.23976
H 12.19449 3.72613 8.49365
H 13.40739 2.91731 11.21983
C 15.95618 2.97308 10.15012
H 15.9385 2.90225 11.26108
C 10.89537 5.92435 9.61506
C 10.90436 2.98747 10.06122
C 9.63521 5.16627 10.07589
C 9.653 3.72073 9.56668
H 10.90859 5.93635 8.50081
H 9.56688 5.16613 11.186
H 9.62625 3.71317 8.4558
H 10.87253 2.91746 11.17098
C 21.02941 -5.87969 10.18461
C 23.56792 -5.89261 10.23875
C 22.31252 -5.14452 9.72845
H 23.54491 -5.91365 11.35378
H 23.62028 -2.93111 8.68369
C 23.59312 -2.95272 9.79866
C 22.30796 -3.68776 10.25031
H 22.33727 -5.12506 8.61341
C 21.05562 -2.9393 9.734
C 19.76849 -3.67135 10.18637
C 19.7734 -5.13448 9.67035
H 19.80075 -5.11869 8.5553
H 21.00434 -5.89731 11.29958
H 22.28047 -3.70726 11.36524
H 21.08422 -2.92132 8.61909
H 19.74134 -3.68723 11.3014
C 21.05355 -1.48219 10.25526
C 23.58979 -1.49695 10.32406
C 22.3409 -0.74751 9.80671
C 19.80679 -0.73174 9.73399
H 21.02179 -1.50038 11.3701
H 23.5601 -1.51842 11.43893
H 19.8408 -0.71507 8.61889
H 22.37223 -0.72794 8.69165
C 18.51127 -1.45902 10.18003
C 18.51246 -2.92172 9.67007
C 18.48585 -5.87075 10.12442
C 17.28331 -0.68776 9.65816
C 17.24332 -3.66805 10.12262
C 17.24839 -5.11138 9.60995
H 17.26981 -0.68666 8.546
H 18.4696 -1.47131 11.29354
H 18.53252 -2.9093 8.55595
H 17.1675 -3.66949 11.2322
H 17.22732 -5.10951 8.498
H 18.45108 -5.88284 11.23812
C 17.29101 0.75739 10.16872
C 18.57283 1.47768 9.73718
C 19.81095 0.72922 10.25276
C 21.09494 1.4539 9.81367
C 22.33841 0.71094 10.32887
C 23.62211 1.43972 9.89167
H 17.20955 0.76491 11.27692
H 19.77687 0.72495 11.36571
H 22.30498 0.70407 11.44174
H 18.59642 1.54843 8.62727
H 21.12913 1.52269 8.70285
H 23.65532 1.51239 8.78113
C 23.57294 5.90932 9.71418
C 22.29393 5.17335 10.17382
C 21.03709 5.92095 9.66408
H 23.59352 5.93019 8.59905
C 22.30074 3.71439 9.65302
H 22.27285 5.15471 11.28906
C 21.0265 2.98502 10.10862
C 19.77304 3.72253 9.60697
C 19.75878 5.18392 10.12432
H 22.31971 3.72031 8.53977
H 21.05909 5.93867 8.54897
H 19.73817 5.16784 11.23976
H 19.79349 3.72613 8.49365
H 21.00639 2.91731 11.21983
C 23.55518 2.97308 10.15012
H 23.5375 2.90225 11.26108
C 18.49437 5.92435 9.61506
C 18.50336 2.98747 10.06122
C 17.23421 5.16627 10.07589
C 17.252 3.72073 9.56668
H 18.50759 5.93635 8.50081
H 17.16588 5.16613 11.186
H 17.22525 3.71317 8.4558
H 18.47153 2.91746 11.17098
C -17.27135 -5.87969 0.18461
C -14.73284 -5.89261 0.23875
C -15.98824 -5.14452 -0.27155
H -14.75585 -5.91365 1.35378
H -14.68048 -2.93111 -1.31631
C -14.70764 -2.95272 -0.20134
C -15.9928 -3.68776 0.25031
H -15.96349 -5.12506 -1.38659
C -17.24514 -2.9393 -0.266
C -18.53227 -3.67135 0.18637
C -18.52736 -5.13448 -0.32965
H -18.50001 -5.11869 -1.4447
H -17.29642 -5.89731 1.29958
H -16.02029 -3.70726 1.36524
H -17.21654 -2.92132 -1.38091
H -18.55942 -3.68723 1.3014
C -17.24721 -1.48219 0.25526
C -14.71097 -1.49695 0.32406
C -15.95986 -0.74751 -0.19329
C -18.49397 -0.73174 -0.26601
H -17.27897 -1.50038 1.3701
H -14.74066 -1.51842 1.43893
H -18.45996 -0.71507 -1.38111
H -15.92853 -0.72794 -1.30835
C -19.78949 -1.45902 0.18003
C -19.7883 -2.92172 -0.32993
C -19.81491 -5.87075 0.12442
C -21.01745 -0.68776 -0.34184
C -21.05744 -3.66805 0.12262
C -21.05237 -5.11138 -0.39005
H -21.03095 -0.68666 -1.454
H -19.83116 -1.47131 1.29354
H -19.76824 -2.9093 -1.44405
H -21.13326 -3.66949 1.2322
H -21.07344 -5.10951 -1.502
H -19.84968 -5.88284 1.23812
C -21.00975 0.75739 0.16872
C -19.72793 1.47768 -0.26282
C -18.48981 0.72922 0.25276
C -17.20582 1.4539 -0.18633
C -15.96235 0.71094 0.32887
C -14.67865 1.43972 -0.10833
H -21.09121 0.76491 1.27692
H -18.52389 0.72495 1.36571
H -15.99578 0.70407 1.44174
H -19.70434 1.54843 -1.37273
H -17.17163 1.52269 -1.29715
H -14.64544 1.51239 -1.21887
C -14.72782 5.90932 -0.28582
C -16.00683 5.17335 0.17382
C -17.26367 5.92095 -0.33592
H -14.70724 5.93019 -1.40095
C -16.00002 3.71439 -0.34698
H -16.02791 5.15471 1.28906
C -17.27426 2.98502 0.10862
C -18.52772 3.72253 -0.39303
C -18.54198 5.18392 0.12432
H -15.98105 3.72031 -1.46023
H -17.24167 5.93867 -1.45103
H -18.56259 5.16784 1.23976
H -18.50727 3.72613 -1.50635
H -17.29437 2.91731 1.21983
C -14.74558 2.97308 0.15012
H -14.76326 2.90225 1.26108
C -19.80639 5.92435 -0.38494
C -19.7974 2.98747 0.06122
C -21.06655 5.16627 0.07589
C -21.04876 3.72073 -0.43332
H -19.79317 5.93635 -1.49919
H -21.13488 5.16613 1.186
H -21.07551 3.71317 -1.5442
H -19.82923 2.91746 1.17098
C -9.67235 -5.87969 0.18461
C -7.13384 -5.89261 0.23875
C -8.38924 -5.14452 -0.27155
H -7.15685 -5.91365 1.35378
H -7.08148 -2.93111 -1.31631
C -7.10864 -2.95272 -0.20134
C -8.3938 -3.68776 0.25031
H -8.36449 -5.12506 -1.38659
C -9.64614 -2.9393 -0.266
C -10.93327 -3.67135 0.18637
C -10.92836 -5.13448 -0.32965
H -10.90101 -5.11869 -1.4447
H -9.69742 -5.89731 1.29958
H -8.42129 -3.70726 1.36524
H -9.61754 -2.92132 -1.38091
H -10.96042 -3.68723 1.3014
C -9.64821 -1.48219 0.25526
C -7.11197 -1.49695 0.32406
C -8.36086 -0.74751 -0.19329
C -10.89497 -0.73174 -0.26601
H -9.67997 -1.50038 1.3701
H -7.14166 -1.51842 1.43893
H -10.86096 -0.71507 -1.38111
H -8.32953 -0.72794 -1.30835
C -12.19049 -1.45902 0.18003
C -12.1893 -2.92172 -0.32993
C -12.21591 -5.87075 0.12442
C -13.41845 -0.68776 -0.34184
C -13.45844 -3.66805 0.12262
C -13.45337 -5.11138 -0.39005
H -13.43195 -0.68666 -1.454
H -12.23216 -1.47131 1.29354
H -12.16924 -2.9093 -1.44405
H -13.53426 -3.66949 1.2322
H -13.47444 -5.10951 -1.502
H -12.25068 -5.88284 1.23812
C -13.41075 0.75739 0.16872
C -12.12893 1.47768 -0.26282
C -10.89081 0.72922 0.25276
C -9.60682 1.4539 -0.18633
C -8.36335 0.71094 0.32887
C -7.07965 1.43972 -0.10833
H -13.49221 0.76491 1.27692
H -10.92489 0.72495 1.36571
H -8.39678 0.70407 1.44174
H -12.10534 1.54843 -1.37273
H -9.57263 1.52269 -1.29715
H -7.04644 1.51239 -1.21887
C -7.12882 5.90932 -0.28582
C -8.40783 5.17335 0.17382
C -9.66467 5.92095 -0.33592
H -7.10824 5.93019 -1.40095
C -8.40102 3.71439 -0.34698
H -8.42891 5.15471 1.28906
C -9.67526 2.98502 0.10862
C -10.92872 3.72253 -0.39303
C -10.94298 5.18392 0.12432
H -8.38205 3.72031 -1.46023
H -9.64267 5.93867 -1.45103
H -10.96359 5.16784 1.23976
H -10.90827 3.72613 -1.50635
H -9.69537 2.91731 1.21983
C -7.14658 2.97308 0.15012
H -7.16426 2.90225 1.26108
C -12.20739 5.92435 -0.38494
C -12.1984 2.98747 0.06122
C -13.46755 5.16627 0.07589
C -13.44976 3.72073 -0.43332
H -12.19417 5.93635 -1.49919
H -13.53588 5.16613 1.186
H -13.47651 3.71317 -1.5442
H -12.23023 2.91746 1.17098
C -17.27135 -5.87969 10.18461
C -14.73284 -5.89261 10.23875
C -15.98824 -5.14452 9.72845
H -14.75585 -5.91365 11.35378
H -14.68048 -2.93111 8.68369
C -14.70764 -2.95272 9.79866
C -15.9928 -3.68776 10.25031
H -15.96349 -5.12506 8.61341
C -17.24514 -2.9393 9.734
C -18.53227 -3.67135 10.18637
C -18.52736 -5.13448 9.67035
H -18.50001 -5.11869 8.5553
H -17.29642 -5.89731 11.29958
H -16.02029 -3.70726 11.36524
H -17.21654 -2.92132 8.61909
H -18.55942 -3.68723 11.3014
C -17.24721 -1.48219 10.25526
C -14.71097 -1.49695 10.32406
C -15.95986 -0.74751 9.80671
C -18.49397 -0.73174 9.73399
H -17.27897 -1.50038 11.3701
H -14.74066 -1.51842 11.43893
H -18.45996 -0.71507 8.61889
H -15.92853 -0.72794 8.69165
C -19.78949 -1.45902 10.18003
C -19.7883 -2.92172 9.67007
C -19.81491 -5.87075 10.12442
C -21.01745 -0.68776 9.65816
C -21.05744 -3.66805 10.12262
C -21.05237 -5.11138 9.60995
H -21.03095 -0.68666 8.546
H -19.83116 -1.47131 11.29354
H -19.76824 -2.9093 8.55595
H -21.13326 -3.66949 11.2322
H -21.07344 -5.10951 8.498
H -19.84968 -5.88284 11.23812
C -21.00975 0.75739 10.16872
C -19.72793 1.47768 9.73718
C -18.48981 0.72922 10.25276
C -17.20582 1.4539 9.81367
C -15.96235 0.71094 10.32887
C -14.67865 1.43972 9.89167
H -21.09121 0.76491 11.27692
H -18.52389 0.72495 11.36571
H -15.99578 0.70407 11.44174
H -19.70434 1.54843 8.62727
H -17.17163 1.52269 8.70285
H -14.64544 1.51239 8.78113
C -14.72782 5.90932 9.71418
C -16.00683 5.17335 10.17382
C -17.26367 5.92095 9.66408
H -14.70724 5.93019 8.59905
C -16.00002 3.71439 9.65302
H -16.02791 5.15471 11.28906
C -17.27426 2.98502 10.10862
C -18.52772 3.72253 9.60697
C -18.54198 5.18392 10.12432
H -15.98105 3.72031 8.53977
H -17.24167 5.93867 8.54897
H -18.56259 5.16784 11.23976
H -18.50727 3.72613 8.49365
H -17.29437 2.91731 11.21983
C -14.74558 2.97308 10.15012
H -14.76326 2.90225 11.26108
C -19.80639 5.92435 9.61506
C -19.7974 2.98747 10.06122
C -21.06655 5.16627 10.07589
C -21.04876 3.72073 9.56668
H -19.79317 5.93635 8.50081
H -21.13488 5.16613 11.186
H -21.07551 3.71317 8.4558
H -19.82923 2.91746 11.17098
C -9.67235 -5.87969 10.18461
C -7.13384 -5.89261 10.23875
C -8.38924 -5.14452 9.72845
H -7.15685 -5.91365 11.35378
H -7.08148 -2.93111 8.68369
C -7.10864 -2.95272 9.79866
C -8.3938 -3.68776 10.25031
H -8.36449 -5.12506 8.61341
C -9.64614 -2.9393 9.734
C -10.93327 -3.67135 10.18637
C -10.92836 -5.13448 9.67035
H -10.90101 -5.11869 8.5553
H -9.69742 -5.89731 11.29958
H -8.42129 -3.70726 11.36524
H -9.61754 -2.92132 8.61909
H -10.96042 -3.68723 11.3014
C -9.64821 -1.48219 10.25526
C -7.11197 -1.49695 10.32406
C -8.36086 -0.74751 9.80671
C -10.89497 -0.73174 9.73399
H -9.67997 -1.50038 11.3701
H -7.14166 -1.51842 11.43893
H -10.86096 -0.71507 8.61889
H -8.32953 -0.72794 8.69165
C -12.19049 -1.45902 10.18003
C -12.1893 -2.92172 9.67007
C -12.21591 -5.87075 10.12442
C -13.41845 -0.68776 9.65816
C -13.45844 -3.66805 10.12262
C -13.45337 -5.11138 9.60995
H -13.43195 -0.68666 8.546
H -12.23216 -1.47131 11.29354
H -12.16924 -2.9093 8.55595
H -13.53426 -3.66949 11.2322
H -13.47444 -5.10951 8.498
H -12.25068 -5.88284 11.23812
C -13.41075 0.75739 10.16872
C -12.12893 1.47768 9.73718
C -10.89081 0.72922 10.25276
C -9.60682 1.4539 9.81367
C -8.36335 0.71094 10.32887
C -7.07965 1.43972 9.89167
H -13.49221 0.76491 11.27692
H -10.92489 0.72495 11.36571
H -8.39678 0.70407 11.44174
H -12.10534 1.54843 8.62727
H -9.57263 1.52269 8.70285
H -7.04644 1.51239 8.78113
C -7.12882 5.90932 9.71418
C -8.40783 5.17335 10.17382
C -9.66467 5.92095 9.66408
H -7.10824 5.93019 8.59905
C -8.40102 3.71439 9.65302
H -8.42891 5.15471 11.28906
C -9.67526 2.98502 10.10862
C -10.92872 3.72253 9.60697
C -10.94298 5.18392 10.12432
H -8.38205 3.72031 8.53977
H -9.64267 5.93867 8.54897
H -10.96359 5.16784 11.23976
H -10.90827 3.72613 8.49365
H -9.69537 2.91731 11.21983
C -7.14658 2.97308 10.15012
H -7.16426 2.90225 11.26108
C -12.20739 5.92435 9.61506
C -12.1984 2.98747 10.06122
C -13.46755 5.16627 10.07589
C -13.44976 3.72073 9.56668
H -12.19417 5.93635 8.50081
H -13.53588 5.16613 11.186
H -13.47651 3.71317 8.4558
H -12.23023 2.91746 11.17098
C -1.92047 7.62031 0.18461
C 0.61804 7.60739 0.23875
C -0.63736 8.35548 -0.27155
H 0.59503 7.58635 1.35378
H 0.6704 10.56889 -1.31631
C 0.64324 10.54728 -0.20134
C -0.64192 9.81224 0.25031
H -0.61261 8.37494 -1.38659
C -1.89426 10.5607 -0.266
C -3.18139 9.82865 0.18637
C -3.17648 8.36552 -0.32965
H -3.14913 8.38131 -1.4447
H -1.94554 7.60269 1.29958
H -0.66941 9.79274 1.36524
H -1.86566 10.57868 -1.38091
H -3.20854 9.81277 1.3014
C -1.89633 12.01781 0.25526
C 0.63991 12.00305 0.32406
C -0.60898 12.75249 -0.19329
C -3.14309 12.76826 -0.26601
H -1.92809 11.99962 1.3701
H 0.61022 11.98158 1.43893
H -3.10908 12.78493 -1.38111
H -0.57765 12.77206 -1.30835
C -4.43861 12.04098 0.18003
C -4.43742 10.57828 -0.32993
C -4.46403 7.62925 0.12442
C -5.66657 12.81224 -0.34184
C -5.70656 9.83195 0.12262
C -5.70149 8.38862 -0.39005
H -5.68007 12.81334 -1.454
H -4.48028 12.02869 1.29354
H -4.41736 10.5907 -1.44405
H -5.78238 9.83051 1.2322
H -5.72256 8.39049 -1.502
H -4.4988 7.61716 1.23812
C -5.65887 14.25739 0.16872
C -4.37705 14.97768 -0.26282
C -3.13893 14.22922 0.25276
C -1.85494 14.9539 -0.18633
C -0.61147 14.21094 0.32887
C 0.67223 14.93972 -0.10833
H -5.74033 14.26491 1.27692
H -3.17301 14.22495 1.36571
H -0.6449 14.20407 1.44174
H -4.35346 15.04843 -1.37273
H -1.82075 15.02269 -1.29715
H 0.70544 15.01239 -1.21887
C 0.62306 19.40932 -0.28582
C -0.65595 18.67335 0.17382
C -1.91279 19.42095 -0.33592
H 0.64364 19.43019 -1.40095
C -0.64914 17.21439 -0.34698
H -0.67703 18.65471 1.28906
C -1.92338 16.48502 0.10862
C -3.17684 17.22253 -0.39303
C -3.1911 18.68392 0.12432
H -0.63017 17.22031 -1.46023
H -1.89079 19.43867 -1.45103
H -3.21171 18.66784 1.23976
H -3.15639 17.22613 -1.50635
H -1.94349 16.41731 1.21983
C 0.6053 16.47308 0.15012
H 0.58762 16.40225 1.26108
C -4.45551 19.42435 -0.38494
C -4.44652 16.48747 0.06122
C -5.71567 18.66627 0.07589
C -5.69788 17.22073 -0.43332
H -4.44229 19.43635 -1.49919
H -5.784 18.66613 1.186
H -5.72463 17.21317 -1.5442
H -4.47835 16.41746 1.17098
C 5.67853 7.62031 0.18461
C 8.21704 7.60739 0.23875
C 6.96164 8.35548 -0.27155
H 8.19403 7.58635 1.35378
H 8.2694 10.56889 -1.31631
C 8.24224 10.54728 -0.20134
C 6.95708 9.81224 0.25031
H 6.98639 8.37494 -1.38659
C 5.70474 10.5607 -0.266
C 4.41761 9.82865 0.18637
C 4.42252 8.36552 -0.32965
H 4.44987 8.38131 -1.4447
H 5.65346 7.60269 1.29958
H 6.92959 9.79274 1.36524
H 5.73334 10.57868 -1.38091
H 4.39046 9.81277 1.3014
C 5.70267 12.01781 0.25526
C 8.23891 12.00305 0.32406
C 6.99002 12.75249 -0.19329
C 4.45591 12.76826 -0.26601
H 5.67091 11.99962 1.3701
H 8.20922 11.98158 1.43893
H 4.48992 12.78493 -1.38111
H 7.02135 12.77206 -1.30835
C 3.16039 12.04098 0.18003
C 3.16158 10.57828 -0.32993
C 3.13497 7.62925 0.12442
C 1.93243 12.81224 -0.34184
C 1.89244 9.83195 0.12262
C 1.89751 8.38862 -0.39005
H 1.91893 12.81334 -1.454
H 3.11872 12.02869 1.29354
H 3.18164 10.5907 -1.44405
H 1.81662 9.83051 1.2322
H 1.87644 8.39049 -1.502
H 3.1002 7.61716 1.23812
C 1.94013 14.25739 0.16872
C 3.22195 14.97768 -0.26282
C 4.46007 14.22922 0.25276
C 5.74406 14.9539 -0.18633
C 6.98753 14.21094 0.32887
C 8.27123 14.93972 -0.10833
H 1.85867 14.26491 1.27692
H 4.42599 14.22495 1.36571
H 6.9541 14.20407 1.44174
H 3.24554 15.04843 -1.37273
H 5.77825 15.02269 -1.29715
H 8.30444 15.01239 -1.21887
C 8.22206 19.40932 -0.28582
C 6.94305 18.67335 0.17382
C 5.68621 19.42095 -0.33592
H 8.24264 19.43019 -1.40095
C 6.94986 17.21439 -0.34698
H 6.92197 18.65471 1.28906
C 5.67562 16.48502 0.10862
C 4.42216 17.22253 -0.39303
C 4.4079 18.68392 0.12432
H 6.96883 17.22031 -1.46023
H 5.70821 19.43867 -1.45103
H 4.38729 18.66784 1.23976
H 4.44261 17.22613 -1.50635
H 5.65551 16.41731 1.21983
C 8.2043 16.47308 0.15012
H 8.18662 16.40225 1.26108
C 3.14349 19.42435 -0.38494
C 3.15248 16.48747 0.06122
C 1.88333 18.66627 0.07589
C 1.90112 17.22073 -0.43332
H 3.15671 19.43635 -1.49919
H 1.815 18.66613 1.186
H 1.87437 17.21317 -1.5442
H 3.12065 16.41746 1.17098
C -1.92047 7.62031 10.18461
C 0.61804 7.60739 10.23875
C -0.63736 8.35548 9.72845
H 0.59503 7.58635 11.35378
H 0.6704 10.56889 8.68369
C 0.64324 10.54728 9.79866
C -0.64192 9.81224 10.25031
H -0.61261 8.37494 8.61341
C -1.89426 10.5607 9.734
C -3.18139 9.82865 10.18637
C -3.17648 8.36552 9.67035
H -3.14913 8.38131 8.5553
H -1.94554 7.60269 11.29958
H -0.66941 9.79274 11.36524
H -1.86566 10.57868 8.61909
H -3.20854 9.81277 11.3014
C -1.89633 12.01781 10.25526
C 0.63991 12.00305 10.32406
C -0.60898 12.75249 9.80671
C -3.14309 12.76826 9.73399
H -1.92809 11.99962 11.3701
H 0.61022 11.98158 11.43893
H -3.10908 12.78493 8.61889
H -0.57765 12.77206 8.69165
C -4.43861 12.04098 10.18003
C -4.43742 10.57828 9.67007
C -4.46403 7.62925 10.12442
C -5.66657 12.81224 9.65816
C -5.70656 9.83195 10.12262
C -5.70149 8.38862 9.60995
H -5.68007 12.81334 8.546
H -4.48028 12.02869 11.29354
H -4.41736 10.5907 8.55595
H -5.78238 9.83051 11.2322
H -5.72256 8.39049 8.498
H -4.4988 7.61716 11.23812
C -5.65887 14.25739 10.16872
C -4.37705 14.97768 9.73718
C -3.13893 14.22922 10.25276
C -1.85494 14.9539 9.81367
C -0.61147 14.21094 10.32887
C 0.67223 14.93972 9.89167
H -5.74033 14.26491 11.27692
H -3.17301 14.22495 11.36571
H -0.6449 14.20407 11.44174
H -4.35346 15.04843 8.62727
H -1.82075 15.02269 8.70285
H 0.70544 15.01239 8.78113
C 0.62306 19.40932 9.71418
C -0.65595 18.67335 10.17382
C -1.91279 19.42095 9.66408
H 0.64364 19.43019 8.59905
C -0.64914 17.21439 9.65302
H -0.67703 18.65471 11.28906
C -1.92338 16.48502 10.10862
C -3.17684 17.22253 9.60697
C -3.1911 18.68392 10.12432
H -0.63017 17.22031 8.53977
H -1.89079 19.43867 8.54897
H -3.21171 18.66784 11.23976
H -3.15639 17.22613 8.49365
H -1.94349 16.41731 11.21983
C 0.6053 16.47308 10.15012
H 0.58762 16.40225 11.26108
C -4.45551 19.42435 9.61506
C -4.44652 16.48747 10.06122
C -5.71567 18.66627 10.07589
C -5.69788 17.22073 9.56668
H -4.44229 19.43635 8.50081
H -5.784 18.66613 11.186
H -5.72463 17.21317 8.4558
H -4.47835 16.41746 11.17098
C 5.67853 7.62031 10.18461
C 8.21704 7.60739 10.23875
C 6.96164 8.35548 9.72845
H 8.19403 7.58635 11.35378
H 8.2694 10.56889 8.68369
C 8.24224 10.54728 9.79866
C 6.95708 9.81224 10.25031
H 6.98639 8.37494 8.61341
C 5.70474 10.5607 9.734
C 4.41761 9.82865 10.18637
C 4.42252 8.36552 9.67035
H 4.44987 8.38131 8.5553
H 5.65346 7.60269 11.29958
H 6.92959 9.79274 11.36524
H 5.73334 10.57868 8.61909
H 4.39046 9.81277 11.3014
C 5.70267 12.01781 10.25526
C 8.23891 12.00305 10.32406
C 6.99002 12.75249 9.80671
C 4.45591 12.76826 9.73399
H 5.67091 11.99962 11.3701
H 8.20922 11.98158 11.43893
H 4.48992 12.78493 8.61889
H 7.02135 12.77206 8.69165
C 3.16039 12.04098 10.18003
C 3.16158 10.57828 9.67007
C 3.13497 7.62925 10.12442
C 1.93243 12.81224 9.65816
C 1.89244 9.83195 10.12262
C 1.89751 8.38862 9.60995
H 1.91893 12.81334 8.546
H 3.11872 12.02869 11.29354
H 3.18164 10.5907 8.55595
H 1.81662 9.83051 11.2322
H 1.87644 8.39049 8.498
H 3.1002 7.61716 11.23812
C 1.94013 14.25739 10.16872
C 3.22195 14.97768 9.73718
C 4.46007 14.22922 10.25276
C 5.74406 14.9539 9.81367
C 6.98753 14.21094 10.32887
C 8.27123 14.93972 9.89167
H 1.85867 14.26491 11.27692
H 4.42599 14.22495 11.36571
H 6.9541 14.20407 11.44174
H 3.24554 15.04843 8.62727
H 5.77825 15.02269 8.70285
H 8.30444 15.01239 8.78113
C 8.22206 19.40932 9.71418
C 6.94305 18.67335 10.17382
C 5.68621 19.42095 9.66408
H 8.24264 19.43019 8.59905
C 6.94986 17.21439 9.65302
H 6.92197 18.65471 11.28906
C 5.67562 16.48502 10.10862
C 4.42216 17.22253 9.60697
C 4.4079 18.68392 10.12432
H 6.96883 17.22031 8.53977
H 5.70821 19.43867 8.54897
H 4.38729 18.66784 11.23976
H 4.44261 17.22613 8.49365
H 5.65551 16.41731 11.21983
C 8.2043 16.47308 10.15012
H 8.18662 16.40225 11.26108
C 3.14349 19.42435 9.61506
C 3.15248 16.48747 10.06122
C 1.88333 18.66627 10.07589
C 1.90112 17.22073 9.56668
H 3.15671 19.43635 8.50081
H 1.815 18.66613 11.186
H 1.87437 17.21317 8.4558
H 3.12065 16.41746 11.17098
C -1.92047 -19.37969 0.18461
C 0.61804 -19.39261 0.23875
C -0.63736 -18.64452 -0.27155
H 0.59503 -19.41365 1.35378
H 0.6704 -16.43111 -1.31631
C 0.64324 -16.45272 -0.20134
C -0.64192 -17.18776 0.25031
H -0.61261 -18.62506 -1.38659
C -1.89426 -16.4393 -0.266
C -3.18139 -17.17135 0.18637
C -3.17648 -18.63448 -0.32965
H -3.14913 -18.61869 -1.4447
H -1.94554 -19.39731 1.29958
H -0.66941 -17.20726 1.36524
H -1.86566 -16.42132 -1.38091
H -3.20854 -17.18723 1.3014
C -1.89633 -14.98219 0.25526
C 0.63991 -14.99695 0.32406
C -0.60898 -14.24751 -0.19329
C -3.14309 -14.23174 -0.26601
H -1.92809 -15.00038 1.3701
H 0.61022 -15.01842 1.43893
H -3.10908 -14.21507 -1.38111
H -0.57765 -14.22794 -1.30835
C -4.43861 -14.95902 0.18003
C -4.43742 -16.42172 -0.32993
C -4.46403 -19.37075 0.12442
C -5.66657 -14.18776 -0.34184
C -5.70656 -17.16805 0.12262
C -5.70149 -18.61138 -0.39005
H -5.68007 -14.18666 -1.454
H -4.48028 -14.97131 1.29354
H -4.41736 -16.4093 -1.44405
H -5.78238 -17.16949 1.2322
H -5.72256 -18.60951 -1.502
H -4.4988 -19.38284 1.23812
C -5.65887 -12.74261 0.16872
C -4.37705 -12.02232 -0.26282
C -3.13893 -12.77078 0.25276
C -1.85494 -12.0461 -0.18633
C -0.61147 -12.78906 0.32887
C 0.67223 -12.06028 -0.10833
H -5.74033 -12.73509 1.27692
H -3.17301 -12.77505 1.36571
H -0.6449 -12.79593 1.44174
H -4.35346 -11.95157 -1.37273
H -1.82075 -11.97731 -1.29715
H 0.70544 -11.98761 -1.21887
C 0.62306 -7.59068 -0.28582
C -0.65595 -8.32665 0.17382
C -1.91279 -7.57905 -0.33592
H 0.64364 -7.56981 -1.40095
C -0.64914 -9.78561 -0.34698
H -0.67703 -8.34529 1.28906
C -1.92338 -10.51498 0.10862
C -3.17684 -9.77747 -0.39303
C -3.1911 -8.31608 0.12432
H -0.63017 -9.77969 -1.46023
H -1.89079 -7.56133 -1.45103
H -3.21171 -8.33216 1.23976
H -3.15639 -9.77387 -1.50635
H -1.94349 -10.58269 1.21983
C 0.6053 -10.52692 0.15012
H 0.58762 -10.59775 1.26108
C -4.45551 -7.57565 -0.38494
C -4.44652 -10.51253 0.06122
C -5.71567 -8.33373 0.07589
C -5.69788 -9.77927 -0.43332
H -4.44229 -7.56365 -1.49919
H -5.784 -8.33387 1.186
H -5.72463 -9.78683 -1.5442
H -4.47835 -10.58254 1.17098
C 5.67853 -19.37969 0.18461
C 8.21704 -19.39261 0.23875
C 6.96164 -18.64452 -0.27155
H 8.19403 -19.41365 1.35378
H 8.2694 -16.43111 -1.31631
C 8.24224 -16.45272 -0.20134
C 6.95708 -17.18776 0.25031
H 6.98639 -18.62506 -1.38659
C 5.70474 -16.4393 -0.266
C 4.41761 -17.17135 0.18637
C 4.42252 -18.63448 -0.32965
H 4.44987 -18.61869 -1.4447
H 5.65346 -19.39731 1.29958
H 6.92959 -17.20726 1.36524
H 5.73334 -16.42132 -1.38091
H 4.39046 -17.18723 1.3014
C 5.70267 -14.98219 0.25526
C 8.23891 -14.99695 0.32406
C 6.99002 -14.24751 -0.19329
C 4.45591 -14.23174 -0.26601
H 5.67091 -15.00038 1.3701
H 8.20922 -15.01842 1.43893
H 4.48992 -14.21507 -1.38111
H 7.02135 -14.22794 -1.30835
C 3.16039 -14.95902 0.18003
C 3.16158 -16.42172 -0.32993
C 3.13497 -19.37075 0.12442
C 1.93243 -14.18776 -0.34184
C 1.89244 -17.16805 0.12262
C 1.89751 -18.61138 -0.39005
H 1.91893 -14.18666 -1.454
H 3.11872 -14.97131 1.29354
H 3.18164 -16.4093 -1.44405
H 1.81662 -17.16949 1.2322
H 1.87644 -18.60951 -1.502
H 3.1002 -19.38284 1.23812
C 1.94013 -12.74261 0.16872
C 3.22195 -12.02232 -0.26282
C 4.46007 -12.77078 0.25276
C 5.74406 -12.0461 -0.18633
C 6.98753 -12.78906 0.32887
C 8.27123 -12.06028 -0.10833
H 1.85867 -12.73509 1.27692
H 4.42599 -12.77505 1.36571
H 6.9541 -12.79593 1.44174
H 3.24554 -11.95157 -1.37273
H 5.77825 -11.97731 -1.29715
H 8.30444 -11.98761 -1.21887
C 8.22206 -7.59068 -0.28582
C 6.94305 -8.32665 0.17382
C 5.68621 -7.57905 -0.33592
H 8.24264 -7.56981 -1.40095
C 6.94986 -9.78561 -0.34698
H 6.92197 -8.34529 1.28906
C 5.67562 -10.51498 0.10862
C 4.42216 -9.77747 -0.39303
C 4.4079 -8.31608 0.12432
H 6.96883 -9.77969 -1.46023
H 5.70821 -7.56133 -1.45103
H 4.38729 -8.33216 1.23976
H 4.44261 -9.77387 -1.50635
H 5.65551 -10.58269 1.21983
C 8.2043 -10.52692 0.15012
H 8.18662 -10.59775 1.26108
C 3.14349 -7.57565 -0.38494
C 3.15248 -10.51253 0.06122
C 1.88333 -8.33373 0.07589
C 1.90112 -9.77927 -0.43332
H 3.15671 -7.56365 -1.49919
H 1.815 -8.33387 1.186
H 1.87437 -9.78683 -1.5442
H 3.12065 -10.58254 1.17098
C -1.92047 -19.37969 10.18461
C 0.61804 -19.39261 10.23875
C -0.63736 -18.64452 9.72845
H 0.59503 -19.41365 11.35378
H 0.6704 -16.43111 8.68369
C 0.64324 -16.45272 9.79866
C -0.64192 -17.18776 10.25031
H -0.61261 -18.62506 8.61341
C -1.89426 -16.4393 9.734
C -3.18139 -17.17135 10.18637
C -3.17648 -18.63448 9.67035
H -3.14913 -18.61869 8.5553
H -1.94554 -19.39731 11.29958
H -0.66941 -17.20726 11.36524
H -1.86566 -16.42132 8.61909
H -3.20854 -17.18723 11.3014
C -1.89633 -14.98219 10.25526
C 0.63991 -14.99695 10.32406
C -0.60898 -14.24751 9.80671
C -3.14309 -14.23174 9.73399
H -1.92809 -15.00038 11.3701
H 0.61022 -15.01842 11.43893
H -3.10908 -14.21507 8.61889
H -0.57765 -14.22794 8.69165
C -4.43861 -14.95902 10.18003
C -4.43742 -16.42172 9.67007
C -4.46403 -19.37075 10.12442
C -5.66657 -14.18776 9.65816
C -5.70656 -17.16805 10.12262
C -5.70149 -18.61138 9.60995
H -5.68007 -14.18666 8.546
H -4.48028 -14.97131 11.29354
H -4.41736 -16.4093 8.55595
H -5.78238 -17.16949 11.2322
H -5.72256 -18.60951 8.498
H -4.4988 -19.38284 11.23812
C -5.65887 -12.74261 10.16872
C -4.37705 -12.02232 9.73718
C -3.13893 -12.77078 10.25276
C -1.85494 -12.0461 9.81367
C -0.61147 -12.78906 10.32887
C 0.67223 -12.06028 9.89167
H -5.74033 -12.73509 11.27692
H -3.17301 -12.77505 11.36571
H -0.6449 -12.79593 11.44174
H -4.35346 -11.95157 8.62727
H -1.82075 -11.97731 8.70285
H 0.70544 -11.98761 8.78113
C 0.62306 -7.59068 9.71418
C -0.65595 -8.32665 10.17382
C -1.91279 -7.57905 9.66408
H 0.64364 -7.56981 8.59905
C -0.64914 -9.78561 9.65302
H -0.67703 -8.34529 11.28906
C -1.92338 -10.51498 10.10862
C -3.17684 -9.77747 9.60697
C -3.1911 -8.31608 10.12432
H -0.63017 -9.77969 8.53977
H -1.89079 -7.56133 8.54897
H -3.21171 -8.33216 11.23976
H -3.15639 -9.77387 8.49365
H -1.94349 -10.58269 11.21983
C 0.6053 -10.52692 10.15012
H 0.58762 -10.59775 11.26108
C -4.45551 -7.57565 9.61506
C -4.44652 -10.51253 10.06122
C -5.71567 -8.33373 10.07589
C -5.69788 -9.77927 9.56668
H -4.44229 -7.56365 8.50081
H -5.784 -8.33387 11.186
H -5.72463 -9.78683 8.4558
H -4.47835 -10.58254 11.17098
C 5.67853 -19.37969 10.18461
C 8.21704 -19.39261 10.23875
C 6.96164 -18.64452 9.72845
H 8.19403 -19.41365 11.35378
H 8.2694 -16.43111 8.68369
C 8.24224 -16.45272 9.79866
C 6.95708 -17.18776 10.25031
H 6.98639 -18.62506 8.61341
C 5.70474 -16.4393 9.734
C 4.41761 -17.17135 10.18637
C 4.42252 -18.63448 9.67035
H 4.44987 -18.61869 8.5553
H 5.65346 -19.39731 11.29958
H 6.92959 -17.20726 11.36524
H 5.73334 -16.42132 8.61909
H 4.39046 -17.18723 11.3014
C 5.70267 -14.98219 10.25526
C 8.23891 -14.99695 10.32406
C 6.99002 -14.24751 9.80671
C 4.45591 -14.23174 9.73399
H 5.67091 -15.00038 11.3701
H 8.20922 -15.01842 11.43893
H 4.48992 -14.21507 8.61889
H 7.02135 -14.22794 8.69165
C 3.16039 -14.95902 10.18003
C 3.16158 -16.42172 9.67007
C 3.13497 -19.37075 10.12442
C 1.93243 -14.18776 9.65816
C 1.89244 -17.16805 10.12262
C 1.89751 -18.61138 9.60995
H 1.91893 -14.18666 8.546
H 3.11872 -14.97131 11.29354
H 3.18164 -16.4093 8.55595
H 1.81662 -17.16949 11.2322
H 1.87644 -18.60951 8.498
H 3.1002 -19.38284 11.23812
C 1.94013 -12.74261 10.16872
C 3.22195 -12.02232 9.73718
C 4.46007 -12.77078 10.25276
C 5.74406 -12.0461 9.81367
C 6.98753 -12.78906 10.32887
C 8.27123 -12.06028 9.89167
H 1.85867 -12.73509 11.27692
H 4.42599 -12.77505 11.36571
H 6.9541 -12.79593 11.44174
H 3.24554 -11.95157 8.62727
H 5.77825 -11.97731 8.70285
H 8.30444 -11.98761 8.78113
C 8.22206 -7.59068 9.71418
C 6.94305 -8.32665 10.17382
C 5.68621 -7.57905 9.66408
H 8.24264 -7.56981 8.59905
C 6.94986 -9.78561 9.65302
H 6.92197 -8.34529 11.28906
C 5.67562 -10.51498 10.10862
C 4.42216 -9.77747 9.60697
C 4.4079 -8.31608 10.12432
H 6.96883 -9.77969 8.53977
H 5.70821 -7.56133 8.54897
H 4.38729 -8.33216 11.23976
H 4.44261 -9.77387 8.49365
H 5.65551 -10.58269 11.21983
C 8.2043 -10.52692 10.15012
H 8.18662 -10.59775 11.26108
C 3.14349 -7.57565 9.61506
C 3.15248 -10.51253 10.06122
C 1.88333 -8.33373 10.07589
C 1.90112 -9.77927 9.56668
H 3.15671 -7.56365 8.50081
H 1.815 -8.33387 11.186
H 1.87437 -9.78683 8.4558
H 3.12065 -10.58254 11.17098
