25

N         -2.19195       -1.31558       -4.44703
C         -1.05685       -2.17922       -4.85217
H         -0.07893       -1.69639       -4.64385
H         -1.08053       -2.38163       -5.94669
H         -1.08953       -3.15658       -4.32106
C         -3.45100       -1.97146       -4.87772
H         -3.47134       -2.12492       -5.98045
H         -4.33794       -1.35530       -4.60675
H         -3.56841       -2.96922       -4.39750
C         -2.09001       -0.00820       -5.13913
H         -1.12577        0.49746       -4.92341
H         -2.91916        0.66968       -4.83641
H         -2.13946       -0.13714       -6.24390
C         -2.24784       -1.14304       -2.96182
H         -2.40105       -2.13591       -2.47846
H         -3.12748       -0.51177       -2.69596
C         -0.99508       -0.50259       -2.31751
H         -0.10260       -1.13520       -2.50228
H         -0.81889        0.51027       -2.73374
C         -1.17807       -0.36938       -0.80006
H         -1.35267       -1.37070       -0.35067
H         -2.05603        0.27613       -0.58161
C          0.05349        0.24621       -0.14622
H          0.94630       -0.39401       -0.31106
H          0.24409        1.26446       -0.54711
