288

C         -3.18592       -5.89278       -4.75935
C         -0.64741       -5.90570       -4.70521
C         -1.90281       -5.15761       -5.21551
H         -0.67042       -5.92674       -3.59018
H         -0.59505       -2.94420       -6.26027
C         -0.62221       -2.96581       -5.14530
C         -1.90737       -3.70085       -4.69365
H         -1.87806       -5.13815       -6.33055
C         -3.15971       -2.95239       -5.20996
C         -4.44684       -3.68444       -4.75759
C         -4.44193       -5.14757       -5.27361
H         -4.41458       -5.13178       -6.38866
H         -3.21099       -5.91040       -3.64438
H         -1.93486       -3.72035       -3.57872
H         -3.13111       -2.93441       -6.32487
H         -4.47399       -3.70032       -3.64256
C         -3.16178       -1.49528       -4.68870
C         -0.62554       -1.51004       -4.61990
C         -1.87443       -0.76060       -5.13725
C         -4.40854       -0.74483       -5.20997
H         -3.19354       -1.51347       -3.57386
H         -0.65523       -1.53151       -3.50503
H         -4.37453       -0.72816       -6.32507
H         -1.84310       -0.74103       -6.25231
C         -5.70406       -1.47211       -4.76393
C         -5.70287       -2.93481       -5.27389
C         -5.72948       -5.88384       -4.81954
C         -6.93202       -0.70085       -5.28580
C         -6.97201       -3.68114       -4.82134
C         -6.96694       -5.12447       -5.33401
H         -6.94552       -0.69975       -6.39796
H         -5.74573       -1.48440       -3.65042
H         -5.68281       -2.92239       -6.38801
H         -7.04783       -3.68258       -3.71176
H         -6.98801       -5.12260       -6.44596
H         -5.76425       -5.89593       -3.70584
C         -6.92432        0.74430       -4.77524
C         -5.64250        1.46459       -5.20678
C         -4.40438        0.71613       -4.69120
C         -3.12039        1.44081       -5.13029
C         -1.87692        0.69785       -4.61509
C         -0.59322        1.42663       -5.05229
H         -7.00578        0.75182       -3.66704
H         -4.43846        0.71186       -3.57825
H         -1.91035        0.69098       -3.50222
H         -5.61891        1.53534       -6.31669
H         -3.08620        1.50960       -6.24111
H         -0.56001        1.49930       -6.16283
C         -0.64239        5.89623       -5.22978
C         -1.92140        5.16026       -4.77014
C         -3.17824        5.90786       -5.27988
H         -0.62181        5.91710       -6.34491
C         -1.91459        3.70130       -5.29094
H         -1.94248        5.14162       -3.65490
C         -3.18883        2.97193       -4.83534
C         -4.44229        3.70944       -5.33699
C         -4.45655        5.17083       -4.81964
H         -1.89562        3.70722       -6.40419
H         -3.15624        5.92558       -6.39499
H         -4.47716        5.15475       -3.70420
H         -4.42184        3.71304       -6.45031
H         -3.20894        2.90422       -3.72413
C         -0.66015        2.95999       -4.79384
H         -0.67783        2.88916       -3.68288
C         -5.72096        5.91126       -5.32890
C         -5.71197        2.97438       -4.88274
C         -6.98112        5.15318       -4.86807
C         -6.96333        3.70764       -5.37728
H         -5.70774        5.92326       -6.44315
H         -7.04945        5.15304       -3.75796
H         -6.99008        3.70008       -6.48816
H         -5.74380        2.90437       -3.77298
C          4.41308       -5.89278       -4.75935
C          6.95159       -5.90570       -4.70521
C          5.69619       -5.15761       -5.21551
H          6.92858       -5.92674       -3.59018
H          7.00395       -2.94420       -6.26027
C          6.97679       -2.96581       -5.14530
C          5.69163       -3.70085       -4.69365
H          5.72094       -5.13815       -6.33055
C          4.43929       -2.95239       -5.20996
C          3.15216       -3.68444       -4.75759
C          3.15707       -5.14757       -5.27361
H          3.18442       -5.13178       -6.38866
H          4.38801       -5.91040       -3.64438
H          5.66414       -3.72035       -3.57872
H          4.46789       -2.93441       -6.32487
H          3.12501       -3.70032       -3.64256
C          4.43722       -1.49528       -4.68870
C          6.97346       -1.51004       -4.61990
C          5.72457       -0.76060       -5.13725
C          3.19046       -0.74483       -5.20997
H          4.40546       -1.51347       -3.57386
H          6.94377       -1.53151       -3.50503
H          3.22447       -0.72816       -6.32507
H          5.75590       -0.74103       -6.25231
C          1.89494       -1.47211       -4.76393
C          1.89613       -2.93481       -5.27389
C          1.86952       -5.88384       -4.81954
C          0.66698       -0.70085       -5.28580
C          0.62699       -3.68114       -4.82134
C          0.63206       -5.12447       -5.33401
H          0.65348       -0.69975       -6.39796
H          1.85327       -1.48440       -3.65042
H          1.91619       -2.92239       -6.38801
H          0.55117       -3.68258       -3.71176
H          0.61099       -5.12260       -6.44596
H          1.83475       -5.89593       -3.70584
C          0.67468        0.74430       -4.77524
C          1.95650        1.46459       -5.20678
C          3.19462        0.71613       -4.69120
C          4.47861        1.44081       -5.13029
C          5.72208        0.69785       -4.61509
C          7.00578        1.42663       -5.05229
H          0.59322        0.75182       -3.66704
H          3.16054        0.71186       -3.57825
H          5.68865        0.69098       -3.50222
H          1.98009        1.53534       -6.31669
H          4.51280        1.50960       -6.24111
H          7.03899        1.49930       -6.16283
C          6.95661        5.89623       -5.22978
C          5.67760        5.16026       -4.77014
C          4.42076        5.90786       -5.27988
H          6.97719        5.91710       -6.34491
C          5.68441        3.70130       -5.29094
H          5.65652        5.14162       -3.65490
C          4.41017        2.97193       -4.83534
C          3.15671        3.70944       -5.33699
C          3.14245        5.17083       -4.81964
H          5.70338        3.70722       -6.40419
H          4.44276        5.92558       -6.39499
H          3.12184        5.15475       -3.70420
H          3.17716        3.71304       -6.45031
H          4.39006        2.90422       -3.72413
C          6.93885        2.95999       -4.79384
H          6.92117        2.88916       -3.68288
C          1.87804        5.91126       -5.32890
C          1.88703        2.97438       -4.88274
C          0.61788        5.15318       -4.86807
C          0.63567        3.70764       -5.37728
H          1.89126        5.92326       -6.44315
H          0.54955        5.15304       -3.75796
H          0.60892        3.70008       -6.48816
H          1.85520        2.90437       -3.77298
C         -3.18592       -5.89278        5.24065
C         -0.64741       -5.90570        5.29479
C         -1.90281       -5.15761        4.78449
H         -0.67042       -5.92674        6.40982
H         -0.59505       -2.94420        3.73973
C         -0.62221       -2.96581        4.85470
C         -1.90737       -3.70085        5.30635
H         -1.87806       -5.13815        3.66945
C         -3.15971       -2.95239        4.79004
C         -4.44684       -3.68444        5.24241
C         -4.44193       -5.14757        4.72639
H         -4.41458       -5.13178        3.61134
H         -3.21099       -5.91040        6.35562
H         -1.93486       -3.72035        6.42128
H         -3.13111       -2.93441        3.67513
H         -4.47399       -3.70032        6.35744
C         -3.16178       -1.49528        5.31130
C         -0.62554       -1.51004        5.38010
C         -1.87443       -0.76060        4.86275
C         -4.40854       -0.74483        4.79003
H         -3.19354       -1.51347        6.42614
H         -0.65523       -1.53151        6.49497
H         -4.37453       -0.72816        3.67493
H         -1.84310       -0.74103        3.74769
C         -5.70406       -1.47211        5.23607
C         -5.70287       -2.93481        4.72611
C         -5.72948       -5.88384        5.18046
C         -6.93202       -0.70085        4.71420
C         -6.97201       -3.68114        5.17866
C         -6.96694       -5.12447        4.66599
H         -6.94552       -0.69975        3.60204
H         -5.74573       -1.48440        6.34958
H         -5.68281       -2.92239        3.61199
H         -7.04783       -3.68258        6.28824
H         -6.98801       -5.12260        3.55404
H         -5.76425       -5.89593        6.29416
C         -6.92432        0.74430        5.22476
C         -5.64250        1.46459        4.79322
C         -4.40438        0.71613        5.30880
C         -3.12039        1.44081        4.86971
C         -1.87692        0.69785        5.38491
C         -0.59322        1.42663        4.94771
H         -7.00578        0.75182        6.33296
H         -4.43846        0.71186        6.42175
H         -1.91035        0.69098        6.49778
H         -5.61891        1.53534        3.68331
H         -3.08620        1.50960        3.75889
H         -0.56001        1.49930        3.83717
C         -0.64239        5.89623        4.77022
C         -1.92140        5.16026        5.22986
C         -3.17824        5.90786        4.72012
H         -0.62181        5.91710        3.65509
C         -1.91459        3.70130        4.70906
H         -1.94248        5.14162        6.34510
C         -3.18883        2.97193        5.16466
C         -4.44229        3.70944        4.66301
C         -4.45655        5.17083        5.18036
H         -1.89562        3.70722        3.59581
H         -3.15624        5.92558        3.60501
H         -4.47716        5.15475        6.29580
H         -4.42184        3.71304        3.54969
H         -3.20894        2.90422        6.27587
C         -0.66015        2.95999        5.20616
H         -0.67783        2.88916        6.31712
C         -5.72096        5.91126        4.67110
C         -5.71197        2.97438        5.11726
C         -6.98112        5.15318        5.13193
C         -6.96333        3.70764        4.62272
H         -5.70774        5.92326        3.55685
H         -7.04945        5.15304        6.24204
H         -6.99008        3.70008        3.51184
H         -5.74380        2.90437        6.22702
C          4.41308       -5.89278        5.24065
C          6.95159       -5.90570        5.29479
C          5.69619       -5.15761        4.78449
H          6.92858       -5.92674        6.40982
H          7.00395       -2.94420        3.73973
C          6.97679       -2.96581        4.85470
C          5.69163       -3.70085        5.30635
H          5.72094       -5.13815        3.66945
C          4.43929       -2.95239        4.79004
C          3.15216       -3.68444        5.24241
C          3.15707       -5.14757        4.72639
H          3.18442       -5.13178        3.61134
H          4.38801       -5.91040        6.35562
H          5.66414       -3.72035        6.42128
H          4.46789       -2.93441        3.67513
H          3.12501       -3.70032        6.35744
C          4.43722       -1.49528        5.31130
C          6.97346       -1.51004        5.38010
C          5.72457       -0.76060        4.86275
C          3.19046       -0.74483        4.79003
H          4.40546       -1.51347        6.42614
H          6.94377       -1.53151        6.49497
H          3.22447       -0.72816        3.67493
H          5.75590       -0.74103        3.74769
C          1.89494       -1.47211        5.23607
C          1.89613       -2.93481        4.72611
C          1.86952       -5.88384        5.18046
C          0.66698       -0.70085        4.71420
C          0.62699       -3.68114        5.17866
C          0.63206       -5.12447        4.66599
H          0.65348       -0.69975        3.60204
H          1.85327       -1.48440        6.34958
H          1.91619       -2.92239        3.61199
H          0.55117       -3.68258        6.28824
H          0.61099       -5.12260        3.55404
H          1.83475       -5.89593        6.29416
C          0.67468        0.74430        5.22476
C          1.95650        1.46459        4.79322
C          3.19462        0.71613        5.30880
C          4.47861        1.44081        4.86971
C          5.72208        0.69785        5.38491
C          7.00578        1.42663        4.94771
H          0.59322        0.75182        6.33296
H          3.16054        0.71186        6.42175
H          5.68865        0.69098        6.49778
H          1.98009        1.53534        3.68331
H          4.51280        1.50960        3.75889
H          7.03899        1.49930        3.83717
C          6.95661        5.89623        4.77022
C          5.67760        5.16026        5.22986
C          4.42076        5.90786        4.72012
H          6.97719        5.91710        3.65509
C          5.68441        3.70130        4.70906
H          5.65652        5.14162        6.34510
C          4.41017        2.97193        5.16466
C          3.15671        3.70944        4.66301
C          3.14245        5.17083        5.18036
H          5.70338        3.70722        3.59581
H          4.44276        5.92558        3.60501
H          3.12184        5.15475        6.29580
H          3.17716        3.71304        3.54969
H          4.39006        2.90422        6.27587
C          6.93885        2.95999        5.20616
H          6.92117        2.88916        6.31712
C          1.87804        5.91126        4.67110
C          1.88703        2.97438        5.11726
C          0.61788        5.15318        5.13193
C          0.63567        3.70764        4.62272
H          1.89126        5.92326        3.55685
H          0.54955        5.15304        6.24204
H          0.60892        3.70008        3.51184
H          1.85520        2.90437        6.22702
