432

C         -6.98542       -5.89278       -7.25935
C         -4.44691       -5.90570       -7.20521
C         -5.70231       -5.15761       -7.71551
H         -4.46992       -5.92674       -6.09018
H         -4.39455       -2.94420       -8.76027
C         -4.42171       -2.96581       -7.64530
C         -5.70687       -3.70085       -7.19365
H         -5.67756       -5.13815       -8.83055
C         -6.95921       -2.95239       -7.70996
C         -8.24634       -3.68444       -7.25759
C         -8.24143       -5.14757       -7.77361
H         -8.21408       -5.13178       -8.88866
H         -7.01049       -5.91040       -6.14438
H         -5.73436       -3.72035       -6.07872
H         -6.93061       -2.93441       -8.82487
H         -8.27349       -3.70032       -6.14256
C         -6.96128       -1.49528       -7.18870
C         -4.42504       -1.51004       -7.11990
C         -5.67393       -0.76060       -7.63725
C         -8.20804       -0.74483       -7.70997
H         -6.99304       -1.51347       -6.07386
H         -4.45473       -1.53151       -6.00503
H         -8.17403       -0.72816       -8.82507
H         -5.64260       -0.74103       -8.75231
C         -9.50356       -1.47211       -7.26393
C         -9.50237       -2.93481       -7.77389
C         -9.52898       -5.88384       -7.31954
C        -10.73152       -0.70085       -7.78580
C        -10.77151       -3.68114       -7.32134
C        -10.76644       -5.12447       -7.83401
H        -10.74502       -0.69975       -8.89796
H         -9.54523       -1.48440       -6.15042
H         -9.48231       -2.92239       -8.88801
H        -10.84733       -3.68258       -6.21176
H        -10.78751       -5.12260       -8.94596
H         -9.56375       -5.89593       -6.20584
C        -10.72382        0.74430       -7.27524
C         -9.44200        1.46459       -7.70678
C         -8.20388        0.71613       -7.19120
C         -6.91989        1.44081       -7.63029
C         -5.67642        0.69785       -7.11509
C         -4.39272        1.42663       -7.55229
H        -10.80528        0.75182       -6.16704
H         -8.23796        0.71186       -6.07825
H         -5.70985        0.69098       -6.00222
H         -9.41841        1.53534       -8.81669
H         -6.88570        1.50960       -8.74111
H         -4.35951        1.49930       -8.66283
C         -4.44189        5.89623       -7.72978
C         -5.72090        5.16026       -7.27014
C         -6.97774        5.90786       -7.77988
H         -4.42131        5.91710       -8.84491
C         -5.71409        3.70130       -7.79094
H         -5.74198        5.14162       -6.15490
C         -6.98833        2.97193       -7.33534
C         -8.24179        3.70944       -7.83699
C         -8.25605        5.17083       -7.31964
H         -5.69512        3.70722       -8.90419
H         -6.95574        5.92558       -8.89499
H         -8.27666        5.15475       -6.20420
H         -8.22134        3.71304       -8.95031
H         -7.00844        2.90422       -6.22413
C         -4.45965        2.95999       -7.29384
H         -4.47733        2.88916       -6.18288
C         -9.52046        5.91126       -7.82890
C         -9.51147        2.97438       -7.38274
C        -10.78062        5.15318       -7.36807
C        -10.76283        3.70764       -7.87728
H         -9.50724        5.92326       -8.94315
H        -10.84895        5.15304       -6.25796
H        -10.78958        3.70008       -8.98816
H         -9.54330        2.90437       -6.27298
C          0.61358       -5.89278       -7.25935
C          3.15209       -5.90570       -7.20521
C          1.89669       -5.15761       -7.71551
H          3.12908       -5.92674       -6.09018
H          3.20445       -2.94420       -8.76027
C          3.17729       -2.96581       -7.64530
C          1.89213       -3.70085       -7.19365
H          1.92144       -5.13815       -8.83055
C          0.63979       -2.95239       -7.70996
C         -0.64734       -3.68444       -7.25759
C         -0.64243       -5.14757       -7.77361
H         -0.61508       -5.13178       -8.88866
H          0.58851       -5.91040       -6.14438
H          1.86464       -3.72035       -6.07872
H          0.66839       -2.93441       -8.82487
H         -0.67449       -3.70032       -6.14256
C          0.63772       -1.49528       -7.18870
C          3.17396       -1.51004       -7.11990
C          1.92507       -0.76060       -7.63725
C         -0.60904       -0.74483       -7.70997
H          0.60596       -1.51347       -6.07386
H          3.14427       -1.53151       -6.00503
H         -0.57503       -0.72816       -8.82507
H          1.95640       -0.74103       -8.75231
C         -1.90456       -1.47211       -7.26393
C         -1.90337       -2.93481       -7.77389
C         -1.92998       -5.88384       -7.31954
C         -3.13252       -0.70085       -7.78580
C         -3.17251       -3.68114       -7.32134
C         -3.16744       -5.12447       -7.83401
H         -3.14602       -0.69975       -8.89796
H         -1.94623       -1.48440       -6.15042
H         -1.88331       -2.92239       -8.88801
H         -3.24833       -3.68258       -6.21176
H         -3.18851       -5.12260       -8.94596
H         -1.96475       -5.89593       -6.20584
C         -3.12482        0.74430       -7.27524
C         -1.84300        1.46459       -7.70678
C         -0.60488        0.71613       -7.19120
C          0.67911        1.44081       -7.63029
C          1.92258        0.69785       -7.11509
C          3.20628        1.42663       -7.55229
H         -3.20628        0.75182       -6.16704
H         -0.63896        0.71186       -6.07825
H          1.88915        0.69098       -6.00222
H         -1.81941        1.53534       -8.81669
H          0.71330        1.50960       -8.74111
H          3.23949        1.49930       -8.66283
C          3.15711        5.89623       -7.72978
C          1.87810        5.16026       -7.27014
C          0.62126        5.90786       -7.77988
H          3.17769        5.91710       -8.84491
C          1.88491        3.70130       -7.79094
H          1.85702        5.14162       -6.15490
C          0.61067        2.97193       -7.33534
C         -0.64279        3.70944       -7.83699
C         -0.65705        5.17083       -7.31964
H          1.90388        3.70722       -8.90419
H          0.64326        5.92558       -8.89499
H         -0.67766        5.15475       -6.20420
H         -0.62234        3.71304       -8.95031
H          0.59056        2.90422       -6.22413
C          3.13935        2.95999       -7.29384
H          3.12167        2.88916       -6.18288
C         -1.92146        5.91126       -7.82890
C         -1.91247        2.97438       -7.38274
C         -3.18162        5.15318       -7.36807
C         -3.16383        3.70764       -7.87728
H         -1.90824        5.92326       -8.94315
H         -3.24995        5.15304       -6.25796
H         -3.19058        3.70008       -8.98816
H         -1.94430        2.90437       -6.27298
C          8.21258       -5.89278       -7.25935
C         10.75109       -5.90570       -7.20521
C          9.49569       -5.15761       -7.71551
H         10.72808       -5.92674       -6.09018
H         10.80345       -2.94420       -8.76027
C         10.77629       -2.96581       -7.64530
C          9.49113       -3.70085       -7.19365
H          9.52044       -5.13815       -8.83055
C          8.23879       -2.95239       -7.70996
C          6.95166       -3.68444       -7.25759
C          6.95657       -5.14757       -7.77361
H          6.98392       -5.13178       -8.88866
H          8.18751       -5.91040       -6.14438
H          9.46364       -3.72035       -6.07872
H          8.26739       -2.93441       -8.82487
H          6.92451       -3.70032       -6.14256
C          8.23672       -1.49528       -7.18870
C         10.77296       -1.51004       -7.11990
C          9.52407       -0.76060       -7.63725
C          6.98996       -0.74483       -7.70997
H          8.20496       -1.51347       -6.07386
H         10.74327       -1.53151       -6.00503
H          7.02397       -0.72816       -8.82507
H          9.55540       -0.74103       -8.75231
C          5.69444       -1.47211       -7.26393
C          5.69563       -2.93481       -7.77389
C          5.66902       -5.88384       -7.31954
C          4.46648       -0.70085       -7.78580
C          4.42649       -3.68114       -7.32134
C          4.43156       -5.12447       -7.83401
H          4.45298       -0.69975       -8.89796
H          5.65277       -1.48440       -6.15042
H          5.71569       -2.92239       -8.88801
H          4.35067       -3.68258       -6.21176
H          4.41049       -5.12260       -8.94596
H          5.63425       -5.89593       -6.20584
C          4.47418        0.74430       -7.27524
C          5.75600        1.46459       -7.70678
C          6.99412        0.71613       -7.19120
C          8.27811        1.44081       -7.63029
C          9.52158        0.69785       -7.11509
C         10.80528        1.42663       -7.55229
H          4.39272        0.75182       -6.16704
H          6.96004        0.71186       -6.07825
H          9.48815        0.69098       -6.00222
H          5.77959        1.53534       -8.81669
H          8.31230        1.50960       -8.74111
H         10.83849        1.49930       -8.66283
C         10.75611        5.89623       -7.72978
C          9.47710        5.16026       -7.27014
C          8.22026        5.90786       -7.77988
H         10.77669        5.91710       -8.84491
C          9.48391        3.70130       -7.79094
H          9.45602        5.14162       -6.15490
C          8.20967        2.97193       -7.33534
C          6.95621        3.70944       -7.83699
C          6.94195        5.17083       -7.31964
H          9.50288        3.70722       -8.90419
H          8.24226        5.92558       -8.89499
H          6.92134        5.15475       -6.20420
H          6.97666        3.71304       -8.95031
H          8.18956        2.90422       -6.22413
C         10.73835        2.95999       -7.29384
H         10.72067        2.88916       -6.18288
C          5.67754        5.91126       -7.82890
C          5.68653        2.97438       -7.38274
C          4.41738        5.15318       -7.36807
C          4.43517        3.70764       -7.87728
H          5.69076        5.92326       -8.94315
H          4.34905        5.15304       -6.25796
H          4.40842        3.70008       -8.98816
H          5.65470        2.90437       -6.27298
C         -6.98542       -5.89278        7.74065
C         -4.44691       -5.90570        7.79479
C         -5.70231       -5.15761        7.28449
H         -4.46992       -5.92674        8.90982
H         -4.39455       -2.94420        6.23973
C         -4.42171       -2.96581        7.35470
C         -5.70687       -3.70085        7.80635
H         -5.67756       -5.13815        6.16945
C         -6.95921       -2.95239        7.29004
C         -8.24634       -3.68444        7.74241
C         -8.24143       -5.14757        7.22639
H         -8.21408       -5.13178        6.11134
H         -7.01049       -5.91040        8.85562
H         -5.73436       -3.72035        8.92128
H         -6.93061       -2.93441        6.17513
H         -8.27349       -3.70032        8.85744
C         -6.96128       -1.49528        7.81130
C         -4.42504       -1.51004        7.88010
C         -5.67393       -0.76060        7.36275
C         -8.20804       -0.74483        7.29003
H         -6.99304       -1.51347        8.92614
H         -4.45473       -1.53151        8.99497
H         -8.17403       -0.72816        6.17493
H         -5.64260       -0.74103        6.24769
C         -9.50356       -1.47211        7.73607
C         -9.50237       -2.93481        7.22611
C         -9.52898       -5.88384        7.68046
C        -10.73152       -0.70085        7.21420
C        -10.77151       -3.68114        7.67866
C        -10.76644       -5.12447        7.16599
H        -10.74502       -0.69975        6.10204
H         -9.54523       -1.48440        8.84958
H         -9.48231       -2.92239        6.11199
H        -10.84733       -3.68258        8.78824
H        -10.78751       -5.12260        6.05404
H         -9.56375       -5.89593        8.79416
C        -10.72382        0.74430        7.72476
C         -9.44200        1.46459        7.29322
C         -8.20388        0.71613        7.80880
C         -6.91989        1.44081        7.36971
C         -5.67642        0.69785        7.88491
C         -4.39272        1.42663        7.44771
H        -10.80528        0.75182        8.83296
H         -8.23796        0.71186        8.92175
H         -5.70985        0.69098        8.99778
H         -9.41841        1.53534        6.18331
H         -6.88570        1.50960        6.25889
H         -4.35951        1.49930        6.33717
C         -4.44189        5.89623        7.27022
C         -5.72090        5.16026        7.72986
C         -6.97774        5.90786        7.22012
H         -4.42131        5.91710        6.15509
C         -5.71409        3.70130        7.20906
H         -5.74198        5.14162        8.84510
C         -6.98833        2.97193        7.66466
C         -8.24179        3.70944        7.16301
C         -8.25605        5.17083        7.68036
H         -5.69512        3.70722        6.09581
H         -6.95574        5.92558        6.10501
H         -8.27666        5.15475        8.79580
H         -8.22134        3.71304        6.04969
H         -7.00844        2.90422        8.77587
C         -4.45965        2.95999        7.70616
H         -4.47733        2.88916        8.81712
C         -9.52046        5.91126        7.17110
C         -9.51147        2.97438        7.61726
C        -10.78062        5.15318        7.63193
C        -10.76283        3.70764        7.12272
H         -9.50724        5.92326        6.05685
H        -10.84895        5.15304        8.74204
H        -10.78958        3.70008        6.01184
H         -9.54330        2.90437        8.72702
C          0.61358       -5.89278        7.74065
C          3.15209       -5.90570        7.79479
C          1.89669       -5.15761        7.28449
H          3.12908       -5.92674        8.90982
H          3.20445       -2.94420        6.23973
C          3.17729       -2.96581        7.35470
C          1.89213       -3.70085        7.80635
H          1.92144       -5.13815        6.16945
C          0.63979       -2.95239        7.29004
C         -0.64734       -3.68444        7.74241
C         -0.64243       -5.14757        7.22639
H         -0.61508       -5.13178        6.11134
H          0.58851       -5.91040        8.85562
H          1.86464       -3.72035        8.92128
H          0.66839       -2.93441        6.17513
H         -0.67449       -3.70032        8.85744
C          0.63772       -1.49528        7.81130
C          3.17396       -1.51004        7.88010
C          1.92507       -0.76060        7.36275
C         -0.60904       -0.74483        7.29003
H          0.60596       -1.51347        8.92614
H          3.14427       -1.53151        8.99497
H         -0.57503       -0.72816        6.17493
H          1.95640       -0.74103        6.24769
C         -1.90456       -1.47211        7.73607
C         -1.90337       -2.93481        7.22611
C         -1.92998       -5.88384        7.68046
C         -3.13252       -0.70085        7.21420
C         -3.17251       -3.68114        7.67866
C         -3.16744       -5.12447        7.16599
H         -3.14602       -0.69975        6.10204
H         -1.94623       -1.48440        8.84958
H         -1.88331       -2.92239        6.11199
H         -3.24833       -3.68258        8.78824
H         -3.18851       -5.12260        6.05404
H         -1.96475       -5.89593        8.79416
C         -3.12482        0.74430        7.72476
C         -1.84300        1.46459        7.29322
C         -0.60488        0.71613        7.80880
C          0.67911        1.44081        7.36971
C          1.92258        0.69785        7.88491
C          3.20628        1.42663        7.44771
H         -3.20628        0.75182        8.83296
H         -0.63896        0.71186        8.92175
H          1.88915        0.69098        8.99778
H         -1.81941        1.53534        6.18331
H          0.71330        1.50960        6.25889
H          3.23949        1.49930        6.33717
C          3.15711        5.89623        7.27022
C          1.87810        5.16026        7.72986
C          0.62126        5.90786        7.22012
H          3.17769        5.91710        6.15509
C          1.88491        3.70130        7.20906
H          1.85702        5.14162        8.84510
C          0.61067        2.97193        7.66466
C         -0.64279        3.70944        7.16301
C         -0.65705        5.17083        7.68036
H          1.90388        3.70722        6.09581
H          0.64326        5.92558        6.10501
H         -0.67766        5.15475        8.79580
H         -0.62234        3.71304        6.04969
H          0.59056        2.90422        8.77587
C          3.13935        2.95999        7.70616
H          3.12167        2.88916        8.81712
C         -1.92146        5.91126        7.17110
C         -1.91247        2.97438        7.61726
C         -3.18162        5.15318        7.63193
C         -3.16383        3.70764        7.12272
H         -1.90824        5.92326        6.05685
H         -3.24995        5.15304        8.74204
H         -3.19058        3.70008        6.01184
H         -1.94430        2.90437        8.72702
C          8.21258       -5.89278        7.74065
C         10.75109       -5.90570        7.79479
C          9.49569       -5.15761        7.28449
H         10.72808       -5.92674        8.90982
H         10.80345       -2.94420        6.23973
C         10.77629       -2.96581        7.35470
C          9.49113       -3.70085        7.80635
H          9.52044       -5.13815        6.16945
C          8.23879       -2.95239        7.29004
C          6.95166       -3.68444        7.74241
C          6.95657       -5.14757        7.22639
H          6.98392       -5.13178        6.11134
H          8.18751       -5.91040        8.85562
H          9.46364       -3.72035        8.92128
H          8.26739       -2.93441        6.17513
H          6.92451       -3.70032        8.85744
C          8.23672       -1.49528        7.81130
C         10.77296       -1.51004        7.88010
C          9.52407       -0.76060        7.36275
C          6.98996       -0.74483        7.29003
H          8.20496       -1.51347        8.92614
H         10.74327       -1.53151        8.99497
H          7.02397       -0.72816        6.17493
H          9.55540       -0.74103        6.24769
C          5.69444       -1.47211        7.73607
C          5.69563       -2.93481        7.22611
C          5.66902       -5.88384        7.68046
C          4.46648       -0.70085        7.21420
C          4.42649       -3.68114        7.67866
C          4.43156       -5.12447        7.16599
H          4.45298       -0.69975        6.10204
H          5.65277       -1.48440        8.84958
H          5.71569       -2.92239        6.11199
H          4.35067       -3.68258        8.78824
H          4.41049       -5.12260        6.05404
H          5.63425       -5.89593        8.79416
C          4.47418        0.74430        7.72476
C          5.75600        1.46459        7.29322
C          6.99412        0.71613        7.80880
C          8.27811        1.44081        7.36971
C          9.52158        0.69785        7.88491
C         10.80528        1.42663        7.44771
H          4.39272        0.75182        8.83296
H          6.96004        0.71186        8.92175
H          9.48815        0.69098        8.99778
H          5.77959        1.53534        6.18331
H          8.31230        1.50960        6.25889
H         10.83849        1.49930        6.33717
C         10.75611        5.89623        7.27022
C          9.47710        5.16026        7.72986
C          8.22026        5.90786        7.22012
H         10.77669        5.91710        6.15509
C          9.48391        3.70130        7.20906
H          9.45602        5.14162        8.84510
C          8.20967        2.97193        7.66466
C          6.95621        3.70944        7.16301
C          6.94195        5.17083        7.68036
H          9.50288        3.70722        6.09581
H          8.24226        5.92558        6.10501
H          6.92134        5.15475        8.79580
H          6.97666        3.71304        6.04969
H          8.18956        2.90422        8.77587
C         10.73835        2.95999        7.70616
H         10.72067        2.88916        8.81712
C          5.67754        5.91126        7.17110
C          5.68653        2.97438        7.61726
C          4.41738        5.15318        7.63193
C          4.43517        3.70764        7.12272
H          5.69076        5.92326        6.05685
H          4.34905        5.15304        8.74204
H          4.40842        3.70008        6.01184
H          5.65470        2.90437        8.72702
