288

C         -3.18592       -5.89278       -7.25935
C         -0.64741       -5.90570       -7.20521
C         -1.90281       -5.15761       -7.71551
H         -0.67042       -5.92674       -6.09018
H         -0.59505       -2.94420       -8.76027
C         -0.62221       -2.96581       -7.64530
C         -1.90737       -3.70085       -7.19365
H         -1.87806       -5.13815       -8.83055
C         -3.15971       -2.95239       -7.70996
C         -4.44684       -3.68444       -7.25759
C         -4.44193       -5.14757       -7.77361
H         -4.41458       -5.13178       -8.88866
H         -3.21099       -5.91040       -6.14438
H         -1.93486       -3.72035       -6.07872
H         -3.13111       -2.93441       -8.82487
H         -4.47399       -3.70032       -6.14256
C         -3.16178       -1.49528       -7.18870
C         -0.62554       -1.51004       -7.11990
C         -1.87443       -0.76060       -7.63725
C         -4.40854       -0.74483       -7.70997
H         -3.19354       -1.51347       -6.07386
H         -0.65523       -1.53151       -6.00503
H         -4.37453       -0.72816       -8.82507
H         -1.84310       -0.74103       -8.75231
C         -5.70406       -1.47211       -7.26393
C         -5.70287       -2.93481       -7.77389
C         -5.72948       -5.88384       -7.31954
C         -6.93202       -0.70085       -7.78580
C         -6.97201       -3.68114       -7.32134
C         -6.96694       -5.12447       -7.83401
H         -6.94552       -0.69975       -8.89796
H         -5.74573       -1.48440       -6.15042
H         -5.68281       -2.92239       -8.88801
H         -7.04783       -3.68258       -6.21176
H         -6.98801       -5.12260       -8.94596
H         -5.76425       -5.89593       -6.20584
C         -6.92432        0.74430       -7.27524
C         -5.64250        1.46459       -7.70678
C         -4.40438        0.71613       -7.19120
C         -3.12039        1.44081       -7.63029
C         -1.87692        0.69785       -7.11509
C         -0.59322        1.42663       -7.55229
H         -7.00578        0.75182       -6.16704
H         -4.43846        0.71186       -6.07825
H         -1.91035        0.69098       -6.00222
H         -5.61891        1.53534       -8.81669
H         -3.08620        1.50960       -8.74111
H         -0.56001        1.49930       -8.66283
C         -0.64239        5.89623       -7.72978
C         -1.92140        5.16026       -7.27014
C         -3.17824        5.90786       -7.77988
H         -0.62181        5.91710       -8.84491
C         -1.91459        3.70130       -7.79094
H         -1.94248        5.14162       -6.15490
C         -3.18883        2.97193       -7.33534
C         -4.44229        3.70944       -7.83699
C         -4.45655        5.17083       -7.31964
H         -1.89562        3.70722       -8.90419
H         -3.15624        5.92558       -8.89499
H         -4.47716        5.15475       -6.20420
H         -4.42184        3.71304       -8.95031
H         -3.20894        2.90422       -6.22413
C         -0.66015        2.95999       -7.29384
H         -0.67783        2.88916       -6.18288
C         -5.72096        5.91126       -7.82890
C         -5.71197        2.97438       -7.38274
C         -6.98112        5.15318       -7.36807
C         -6.96333        3.70764       -7.87728
H         -5.70774        5.92326       -8.94315
H         -7.04945        5.15304       -6.25796
H         -6.99008        3.70008       -8.98816
H         -5.74380        2.90437       -6.27298
C          4.41308       -5.89278       -7.25935
C          6.95159       -5.90570       -7.20521
C          5.69619       -5.15761       -7.71551
H          6.92858       -5.92674       -6.09018
H          7.00395       -2.94420       -8.76027
C          6.97679       -2.96581       -7.64530
C          5.69163       -3.70085       -7.19365
H          5.72094       -5.13815       -8.83055
C          4.43929       -2.95239       -7.70996
C          3.15216       -3.68444       -7.25759
C          3.15707       -5.14757       -7.77361
H          3.18442       -5.13178       -8.88866
H          4.38801       -5.91040       -6.14438
H          5.66414       -3.72035       -6.07872
H          4.46789       -2.93441       -8.82487
H          3.12501       -3.70032       -6.14256
C          4.43722       -1.49528       -7.18870
C          6.97346       -1.51004       -7.11990
C          5.72457       -0.76060       -7.63725
C          3.19046       -0.74483       -7.70997
H          4.40546       -1.51347       -6.07386
H          6.94377       -1.53151       -6.00503
H          3.22447       -0.72816       -8.82507
H          5.75590       -0.74103       -8.75231
C          1.89494       -1.47211       -7.26393
C          1.89613       -2.93481       -7.77389
C          1.86952       -5.88384       -7.31954
C          0.66698       -0.70085       -7.78580
C          0.62699       -3.68114       -7.32134
C          0.63206       -5.12447       -7.83401
H          0.65348       -0.69975       -8.89796
H          1.85327       -1.48440       -6.15042
H          1.91619       -2.92239       -8.88801
H          0.55117       -3.68258       -6.21176
H          0.61099       -5.12260       -8.94596
H          1.83475       -5.89593       -6.20584
C          0.67468        0.74430       -7.27524
C          1.95650        1.46459       -7.70678
C          3.19462        0.71613       -7.19120
C          4.47861        1.44081       -7.63029
C          5.72208        0.69785       -7.11509
C          7.00578        1.42663       -7.55229
H          0.59322        0.75182       -6.16704
H          3.16054        0.71186       -6.07825
H          5.68865        0.69098       -6.00222
H          1.98009        1.53534       -8.81669
H          4.51280        1.50960       -8.74111
H          7.03899        1.49930       -8.66283
C          6.95661        5.89623       -7.72978
C          5.67760        5.16026       -7.27014
C          4.42076        5.90786       -7.77988
H          6.97719        5.91710       -8.84491
C          5.68441        3.70130       -7.79094
H          5.65652        5.14162       -6.15490
C          4.41017        2.97193       -7.33534
C          3.15671        3.70944       -7.83699
C          3.14245        5.17083       -7.31964
H          5.70338        3.70722       -8.90419
H          4.44276        5.92558       -8.89499
H          3.12184        5.15475       -6.20420
H          3.17716        3.71304       -8.95031
H          4.39006        2.90422       -6.22413
C          6.93885        2.95999       -7.29384
H          6.92117        2.88916       -6.18288
C          1.87804        5.91126       -7.82890
C          1.88703        2.97438       -7.38274
C          0.61788        5.15318       -7.36807
C          0.63567        3.70764       -7.87728
H          1.89126        5.92326       -8.94315
H          0.54955        5.15304       -6.25796
H          0.60892        3.70008       -8.98816
H          1.85520        2.90437       -6.27298
C         -3.18592       -5.89278        7.74065
C         -0.64741       -5.90570        7.79479
C         -1.90281       -5.15761        7.28449
H         -0.67042       -5.92674        8.90982
H         -0.59505       -2.94420        6.23973
C         -0.62221       -2.96581        7.35470
C         -1.90737       -3.70085        7.80635
H         -1.87806       -5.13815        6.16945
C         -3.15971       -2.95239        7.29004
C         -4.44684       -3.68444        7.74241
C         -4.44193       -5.14757        7.22639
H         -4.41458       -5.13178        6.11134
H         -3.21099       -5.91040        8.85562
H         -1.93486       -3.72035        8.92128
H         -3.13111       -2.93441        6.17513
H         -4.47399       -3.70032        8.85744
C         -3.16178       -1.49528        7.81130
C         -0.62554       -1.51004        7.88010
C         -1.87443       -0.76060        7.36275
C         -4.40854       -0.74483        7.29003
H         -3.19354       -1.51347        8.92614
H         -0.65523       -1.53151        8.99497
H         -4.37453       -0.72816        6.17493
H         -1.84310       -0.74103        6.24769
C         -5.70406       -1.47211        7.73607
C         -5.70287       -2.93481        7.22611
C         -5.72948       -5.88384        7.68046
C         -6.93202       -0.70085        7.21420
C         -6.97201       -3.68114        7.67866
C         -6.96694       -5.12447        7.16599
H         -6.94552       -0.69975        6.10204
H         -5.74573       -1.48440        8.84958
H         -5.68281       -2.92239        6.11199
H         -7.04783       -3.68258        8.78824
H         -6.98801       -5.12260        6.05404
H         -5.76425       -5.89593        8.79416
C         -6.92432        0.74430        7.72476
C         -5.64250        1.46459        7.29322
C         -4.40438        0.71613        7.80880
C         -3.12039        1.44081        7.36971
C         -1.87692        0.69785        7.88491
C         -0.59322        1.42663        7.44771
H         -7.00578        0.75182        8.83296
H         -4.43846        0.71186        8.92175
H         -1.91035        0.69098        8.99778
H         -5.61891        1.53534        6.18331
H         -3.08620        1.50960        6.25889
H         -0.56001        1.49930        6.33717
C         -0.64239        5.89623        7.27022
C         -1.92140        5.16026        7.72986
C         -3.17824        5.90786        7.22012
H         -0.62181        5.91710        6.15509
C         -1.91459        3.70130        7.20906
H         -1.94248        5.14162        8.84510
C         -3.18883        2.97193        7.66466
C         -4.44229        3.70944        7.16301
C         -4.45655        5.17083        7.68036
H         -1.89562        3.70722        6.09581
H         -3.15624        5.92558        6.10501
H         -4.47716        5.15475        8.79580
H         -4.42184        3.71304        6.04969
H         -3.20894        2.90422        8.77587
C         -0.66015        2.95999        7.70616
H         -0.67783        2.88916        8.81712
C         -5.72096        5.91126        7.17110
C         -5.71197        2.97438        7.61726
C         -6.98112        5.15318        7.63193
C         -6.96333        3.70764        7.12272
H         -5.70774        5.92326        6.05685
H         -7.04945        5.15304        8.74204
H         -6.99008        3.70008        6.01184
H         -5.74380        2.90437        8.72702
C          4.41308       -5.89278        7.74065
C          6.95159       -5.90570        7.79479
C          5.69619       -5.15761        7.28449
H          6.92858       -5.92674        8.90982
H          7.00395       -2.94420        6.23973
C          6.97679       -2.96581        7.35470
C          5.69163       -3.70085        7.80635
H          5.72094       -5.13815        6.16945
C          4.43929       -2.95239        7.29004
C          3.15216       -3.68444        7.74241
C          3.15707       -5.14757        7.22639
H          3.18442       -5.13178        6.11134
H          4.38801       -5.91040        8.85562
H          5.66414       -3.72035        8.92128
H          4.46789       -2.93441        6.17513
H          3.12501       -3.70032        8.85744
C          4.43722       -1.49528        7.81130
C          6.97346       -1.51004        7.88010
C          5.72457       -0.76060        7.36275
C          3.19046       -0.74483        7.29003
H          4.40546       -1.51347        8.92614
H          6.94377       -1.53151        8.99497
H          3.22447       -0.72816        6.17493
H          5.75590       -0.74103        6.24769
C          1.89494       -1.47211        7.73607
C          1.89613       -2.93481        7.22611
C          1.86952       -5.88384        7.68046
C          0.66698       -0.70085        7.21420
C          0.62699       -3.68114        7.67866
C          0.63206       -5.12447        7.16599
H          0.65348       -0.69975        6.10204
H          1.85327       -1.48440        8.84958
H          1.91619       -2.92239        6.11199
H          0.55117       -3.68258        8.78824
H          0.61099       -5.12260        6.05404
H          1.83475       -5.89593        8.79416
C          0.67468        0.74430        7.72476
C          1.95650        1.46459        7.29322
C          3.19462        0.71613        7.80880
C          4.47861        1.44081        7.36971
C          5.72208        0.69785        7.88491
C          7.00578        1.42663        7.44771
H          0.59322        0.75182        8.83296
H          3.16054        0.71186        8.92175
H          5.68865        0.69098        8.99778
H          1.98009        1.53534        6.18331
H          4.51280        1.50960        6.25889
H          7.03899        1.49930        6.33717
C          6.95661        5.89623        7.27022
C          5.67760        5.16026        7.72986
C          4.42076        5.90786        7.22012
H          6.97719        5.91710        6.15509
C          5.68441        3.70130        7.20906
H          5.65652        5.14162        8.84510
C          4.41017        2.97193        7.66466
C          3.15671        3.70944        7.16301
C          3.14245        5.17083        7.68036
H          5.70338        3.70722        6.09581
H          4.44276        5.92558        6.10501
H          3.12184        5.15475        8.79580
H          3.17716        3.71304        6.04969
H          4.39006        2.90422        8.77587
C          6.93885        2.95999        7.70616
H          6.92117        2.88916        8.81712
C          1.87804        5.91126        7.17110
C          1.88703        2.97438        7.61726
C          0.61788        5.15318        7.63193
C          0.63567        3.70764        7.12272
H          1.89126        5.92326        6.05685
H          0.54955        5.15304        8.74204
H          0.60892        3.70008        6.01184
H          1.85520        2.90437        8.72702
