1152

C -1.92047 -5.87969 0.18461
C 0.61804 -5.89261 0.23875
C -0.63736 -5.14452 -0.27155
H 0.59503 -5.91365 1.35378
H 0.6704 -2.93111 -1.31631
C 0.64324 -2.95272 -0.20134
C -0.64192 -3.68776 0.25031
H -0.61261 -5.12506 -1.38659
C -1.89426 -2.9393 -0.266
C -3.18139 -3.67135 0.18637
C -3.17648 -5.13448 -0.32965
H -3.14913 -5.11869 -1.4447
H -1.94554 -5.89731 1.29958
H -0.66941 -3.70726 1.36524
H -1.86566 -2.92132 -1.38091
H -3.20854 -3.68723 1.3014
C -1.89633 -1.48219 0.25526
C 0.63991 -1.49695 0.32406
C -0.60898 -0.74751 -0.19329
C -3.14309 -0.73174 -0.26601
H -1.92809 -1.50038 1.3701
H 0.61022 -1.51842 1.43893
H -3.10908 -0.71507 -1.38111
H -0.57765 -0.72794 -1.30835
C -4.43861 -1.45902 0.18003
C -4.43742 -2.92172 -0.32993
C -4.46403 -5.87075 0.12442
C -5.66657 -0.68776 -0.34184
C -5.70656 -3.66805 0.12262
C -5.70149 -5.11138 -0.39005
H -5.68007 -0.68666 -1.454
H -4.48028 -1.47131 1.29354
H -4.41736 -2.9093 -1.44405
H -5.78238 -3.66949 1.2322
H -5.72256 -5.10951 -1.502
H -4.4988 -5.88284 1.23812
C -5.65887 0.75739 0.16872
C -4.37705 1.47768 -0.26282
C -3.13893 0.72922 0.25276
C -1.85494 1.4539 -0.18633
C -0.61147 0.71094 0.32887
C 0.67223 1.43972 -0.10833
H -5.74033 0.76491 1.27692
H -3.17301 0.72495 1.36571
H -0.6449 0.70407 1.44174
H -4.35346 1.54843 -1.37273
H -1.82075 1.52269 -1.29715
H 0.70544 1.51239 -1.21887
C 0.62306 5.90932 -0.28582
C -0.65595 5.17335 0.17382
C -1.91279 5.92095 -0.33592
H 0.64364 5.93019 -1.40095
C -0.64914 3.71439 -0.34698
H -0.67703 5.15471 1.28906
C -1.92338 2.98502 0.10862
C -3.17684 3.72253 -0.39303
C -3.1911 5.18392 0.12432
H -0.63017 3.72031 -1.46023
H -1.89079 5.93867 -1.45103
H -3.21171 5.16784 1.23976
H -3.15639 3.72613 -1.50635
H -1.94349 2.91731 1.21983
C 0.6053 2.97308 0.15012
H 0.58762 2.90225 1.26108
C -4.45551 5.92435 -0.38494
C -4.44652 2.98747 0.06122
C -5.71567 5.16627 0.07589
C -5.69788 3.72073 -0.43332
H -4.44229 5.93635 -1.49919
H -5.784 5.16613 1.186
H -5.72463 3.71317 -1.5442
H -4.47835 2.91746 1.17098
C -1.92047 7.51231 0.18461
C 0.61804 7.49939 0.23875
C -0.63736 8.24748 -0.27155
H 0.59503 7.47835 1.35378
H 0.6704 10.46089 -1.31631
C 0.64324 10.43928 -0.20134
C -0.64192 9.70424 0.25031
H -0.61261 8.26694 -1.38659
C -1.89426 10.4527 -0.266
C -3.18139 9.72065 0.18637
C -3.17648 8.25752 -0.32965
H -3.14913 8.27331 -1.4447
H -1.94554 7.49469 1.29958
H -0.66941 9.68474 1.36524
H -1.86566 10.47068 -1.38091
H -3.20854 9.70477 1.3014
C -1.89633 11.90981 0.25526
C 0.63991 11.89505 0.32406
C -0.60898 12.64449 -0.19329
C -3.14309 12.66026 -0.26601
H -1.92809 11.89162 1.3701
H 0.61022 11.87358 1.43893
H -3.10908 12.67693 -1.38111
H -0.57765 12.66406 -1.30835
C -4.43861 11.93298 0.18003
C -4.43742 10.47028 -0.32993
C -4.46403 7.52125 0.12442
C -5.66657 12.70424 -0.34184
C -5.70656 9.72395 0.12262
C -5.70149 8.28062 -0.39005
H -5.68007 12.70534 -1.454
H -4.48028 11.92069 1.29354
H -4.41736 10.4827 -1.44405
H -5.78238 9.72251 1.2322
H -5.72256 8.28249 -1.502
H -4.4988 7.50916 1.23812
C -5.65887 14.14939 0.16872
C -4.37705 14.86968 -0.26282
C -3.13893 14.12122 0.25276
C -1.85494 14.8459 -0.18633
C -0.61147 14.10294 0.32887
C 0.67223 14.83172 -0.10833
H -5.74033 14.15691 1.27692
H -3.17301 14.11695 1.36571
H -0.6449 14.09607 1.44174
H -4.35346 14.94043 -1.37273
H -1.82075 14.91469 -1.29715
H 0.70544 14.90439 -1.21887
C 0.62306 19.30132 -0.28582
C -0.65595 18.56535 0.17382
C -1.91279 19.31295 -0.33592
H 0.64364 19.32219 -1.40095
C -0.64914 17.10639 -0.34698
H -0.67703 18.54671 1.28906
C -1.92338 16.37702 0.10862
C -3.17684 17.11453 -0.39303
C -3.1911 18.57592 0.12432
H -0.63017 17.11231 -1.46023
H -1.89079 19.33067 -1.45103
H -3.21171 18.55984 1.23976
H -3.15639 17.11813 -1.50635
H -1.94349 16.30931 1.21983
C 0.6053 16.36508 0.15012
H 0.58762 16.29425 1.26108
C -4.45551 19.31635 -0.38494
C -4.44652 16.37947 0.06122
C -5.71567 18.55827 0.07589
C -5.69788 17.11273 -0.43332
H -4.44229 19.32835 -1.49919
H -5.784 18.55813 1.186
H -5.72463 17.10517 -1.5442
H -4.47835 16.30946 1.17098
C 5.67853 -5.87969 0.18461
C 8.21704 -5.89261 0.23875
C 6.96164 -5.14452 -0.27155
H 8.19403 -5.91365 1.35378
H 8.2694 -2.93111 -1.31631
C 8.24224 -2.95272 -0.20134
C 6.95708 -3.68776 0.25031
H 6.98639 -5.12506 -1.38659
C 5.70474 -2.9393 -0.266
C 4.41761 -3.67135 0.18637
C 4.42252 -5.13448 -0.32965
H 4.44987 -5.11869 -1.4447
H 5.65346 -5.89731 1.29958
H 6.92959 -3.70726 1.36524
H 5.73334 -2.92132 -1.38091
H 4.39046 -3.68723 1.3014
C 5.70267 -1.48219 0.25526
C 8.23891 -1.49695 0.32406
C 6.99002 -0.74751 -0.19329
C 4.45591 -0.73174 -0.26601
H 5.67091 -1.50038 1.3701
H 8.20922 -1.51842 1.43893
H 4.48992 -0.71507 -1.38111
H 7.02135 -0.72794 -1.30835
C 3.16039 -1.45902 0.18003
C 3.16158 -2.92172 -0.32993
C 3.13497 -5.87075 0.12442
C 1.93243 -0.68776 -0.34184
C 1.89244 -3.66805 0.12262
C 1.89751 -5.11138 -0.39005
H 1.91893 -0.68666 -1.454
H 3.11872 -1.47131 1.29354
H 3.18164 -2.9093 -1.44405
H 1.81662 -3.66949 1.2322
H 1.87644 -5.10951 -1.502
H 3.1002 -5.88284 1.23812
C 1.94013 0.75739 0.16872
C 3.22195 1.47768 -0.26282
C 4.46007 0.72922 0.25276
C 5.74406 1.4539 -0.18633
C 6.98753 0.71094 0.32887
C 8.27123 1.43972 -0.10833
H 1.85867 0.76491 1.27692
H 4.42599 0.72495 1.36571
H 6.9541 0.70407 1.44174
H 3.24554 1.54843 -1.37273
H 5.77825 1.52269 -1.29715
H 8.30444 1.51239 -1.21887
C 8.22206 5.90932 -0.28582
C 6.94305 5.17335 0.17382
C 5.68621 5.92095 -0.33592
H 8.24264 5.93019 -1.40095
C 6.94986 3.71439 -0.34698
H 6.92197 5.15471 1.28906
C 5.67562 2.98502 0.10862
C 4.42216 3.72253 -0.39303
C 4.4079 5.18392 0.12432
H 6.96883 3.72031 -1.46023
H 5.70821 5.93867 -1.45103
H 4.38729 5.16784 1.23976
H 4.44261 3.72613 -1.50635
H 5.65551 2.91731 1.21983
C 8.2043 2.97308 0.15012
H 8.18662 2.90225 1.26108
C 3.14349 5.92435 -0.38494
C 3.15248 2.98747 0.06122
C 1.88333 5.16627 0.07589
C 1.90112 3.72073 -0.43332
H 3.15671 5.93635 -1.49919
H 1.815 5.16613 1.186
H 1.87437 3.71317 -1.5442
H 3.12065 2.91746 1.17098
C 5.67853 7.51231 0.18461
C 8.21704 7.49939 0.23875
C 6.96164 8.24748 -0.27155
H 8.19403 7.47835 1.35378
H 8.2694 10.46089 -1.31631
C 8.24224 10.43928 -0.20134
C 6.95708 9.70424 0.25031
H 6.98639 8.26694 -1.38659
C 5.70474 10.4527 -0.266
C 4.41761 9.72065 0.18637
C 4.42252 8.25752 -0.32965
H 4.44987 8.27331 -1.4447
H 5.65346 7.49469 1.29958
H 6.92959 9.68474 1.36524
H 5.73334 10.47068 -1.38091
H 4.39046 9.70477 1.3014
C 5.70267 11.90981 0.25526
C 8.23891 11.89505 0.32406
C 6.99002 12.64449 -0.19329
C 4.45591 12.66026 -0.26601
H 5.67091 11.89162 1.3701
H 8.20922 11.87358 1.43893
H 4.48992 12.67693 -1.38111
H 7.02135 12.66406 -1.30835
C 3.16039 11.93298 0.18003
C 3.16158 10.47028 -0.32993
C 3.13497 7.52125 0.12442
C 1.93243 12.70424 -0.34184
C 1.89244 9.72395 0.12262
C 1.89751 8.28062 -0.39005
H 1.91893 12.70534 -1.454
H 3.11872 11.92069 1.29354
H 3.18164 10.4827 -1.44405
H 1.81662 9.72251 1.2322
H 1.87644 8.28249 -1.502
H 3.1002 7.50916 1.23812
C 1.94013 14.14939 0.16872
C 3.22195 14.86968 -0.26282
C 4.46007 14.12122 0.25276
C 5.74406 14.8459 -0.18633
C 6.98753 14.10294 0.32887
C 8.27123 14.83172 -0.10833
H 1.85867 14.15691 1.27692
H 4.42599 14.11695 1.36571
H 6.9541 14.09607 1.44174
H 3.24554 14.94043 -1.37273
H 5.77825 14.91469 -1.29715
H 8.30444 14.90439 -1.21887
C 8.22206 19.30132 -0.28582
C 6.94305 18.56535 0.17382
C 5.68621 19.31295 -0.33592
H 8.24264 19.32219 -1.40095
C 6.94986 17.10639 -0.34698
H 6.92197 18.54671 1.28906
C 5.67562 16.37702 0.10862
C 4.42216 17.11453 -0.39303
C 4.4079 18.57592 0.12432
H 6.96883 17.11231 -1.46023
H 5.70821 19.33067 -1.45103
H 4.38729 18.55984 1.23976
H 4.44261 17.11813 -1.50635
H 5.65551 16.30931 1.21983
C 8.2043 16.36508 0.15012
H 8.18662 16.29425 1.26108
C 3.14349 19.31635 -0.38494
C 3.15248 16.37947 0.06122
C 1.88333 18.55827 0.07589
C 1.90112 17.11273 -0.43332
H 3.15671 19.32835 -1.49919
H 1.815 18.55813 1.186
H 1.87437 17.10517 -1.5442
H 3.12065 16.30946 1.17098
C 13.27753 -5.87969 0.18461
C 15.81604 -5.89261 0.23875
C 14.56064 -5.14452 -0.27155
H 15.79303 -5.91365 1.35378
H 15.8684 -2.93111 -1.31631
C 15.84124 -2.95272 -0.20134
C 14.55608 -3.68776 0.25031
H 14.58539 -5.12506 -1.38659
C 13.30374 -2.9393 -0.266
C 12.01661 -3.67135 0.18637
C 12.02152 -5.13448 -0.32965
H 12.04887 -5.11869 -1.4447
H 13.25246 -5.89731 1.29958
H 14.52859 -3.70726 1.36524
H 13.33234 -2.92132 -1.38091
H 11.98946 -3.68723 1.3014
C 13.30167 -1.48219 0.25526
C 15.83791 -1.49695 0.32406
C 14.58902 -0.74751 -0.19329
C 12.05491 -0.73174 -0.26601
H 13.26991 -1.50038 1.3701
H 15.80822 -1.51842 1.43893
H 12.08892 -0.71507 -1.38111
H 14.62035 -0.72794 -1.30835
C 10.75939 -1.45902 0.18003
C 10.76058 -2.92172 -0.32993
C 10.73397 -5.87075 0.12442
C 9.53143 -0.68776 -0.34184
C 9.49144 -3.66805 0.12262
C 9.49651 -5.11138 -0.39005
H 9.51793 -0.68666 -1.454
H 10.71772 -1.47131 1.29354
H 10.78064 -2.9093 -1.44405
H 9.41562 -3.66949 1.2322
H 9.47544 -5.10951 -1.502
H 10.6992 -5.88284 1.23812
C 9.53913 0.75739 0.16872
C 10.82095 1.47768 -0.26282
C 12.05907 0.72922 0.25276
C 13.34306 1.4539 -0.18633
C 14.58653 0.71094 0.32887
C 15.87023 1.43972 -0.10833
H 9.45767 0.76491 1.27692
H 12.02499 0.72495 1.36571
H 14.5531 0.70407 1.44174
H 10.84454 1.54843 -1.37273
H 13.37725 1.52269 -1.29715
H 15.90344 1.51239 -1.21887
C 15.82106 5.90932 -0.28582
C 14.54205 5.17335 0.17382
C 13.28521 5.92095 -0.33592
H 15.84164 5.93019 -1.40095
C 14.54886 3.71439 -0.34698
H 14.52097 5.15471 1.28906
C 13.27462 2.98502 0.10862
C 12.02116 3.72253 -0.39303
C 12.0069 5.18392 0.12432
H 14.56783 3.72031 -1.46023
H 13.30721 5.93867 -1.45103
H 11.98629 5.16784 1.23976
H 12.04161 3.72613 -1.50635
H 13.25451 2.91731 1.21983
C 15.8033 2.97308 0.15012
H 15.78562 2.90225 1.26108
C 10.74249 5.92435 -0.38494
C 10.75148 2.98747 0.06122
C 9.48233 5.16627 0.07589
C 9.50012 3.72073 -0.43332
H 10.75571 5.93635 -1.49919
H 9.414 5.16613 1.186
H 9.47337 3.71317 -1.5442
H 10.71965 2.91746 1.17098
C 13.27753 7.51231 0.18461
C 15.81604 7.49939 0.23875
C 14.56064 8.24748 -0.27155
H 15.79303 7.47835 1.35378
H 15.8684 10.46089 -1.31631
C 15.84124 10.43928 -0.20134
C 14.55608 9.70424 0.25031
H 14.58539 8.26694 -1.38659
C 13.30374 10.4527 -0.266
C 12.01661 9.72065 0.18637
C 12.02152 8.25752 -0.32965
H 12.04887 8.27331 -1.4447
H 13.25246 7.49469 1.29958
H 14.52859 9.68474 1.36524
H 13.33234 10.47068 -1.38091
H 11.98946 9.70477 1.3014
C 13.30167 11.90981 0.25526
C 15.83791 11.89505 0.32406
C 14.58902 12.64449 -0.19329
C 12.05491 12.66026 -0.26601
H 13.26991 11.89162 1.3701
H 15.80822 11.87358 1.43893
H 12.08892 12.67693 -1.38111
H 14.62035 12.66406 -1.30835
C 10.75939 11.93298 0.18003
C 10.76058 10.47028 -0.32993
C 10.73397 7.52125 0.12442
C 9.53143 12.70424 -0.34184
C 9.49144 9.72395 0.12262
C 9.49651 8.28062 -0.39005
H 9.51793 12.70534 -1.454
H 10.71772 11.92069 1.29354
H 10.78064 10.4827 -1.44405
H 9.41562 9.72251 1.2322
H 9.47544 8.28249 -1.502
H 10.6992 7.50916 1.23812
C 9.53913 14.14939 0.16872
C 10.82095 14.86968 -0.26282
C 12.05907 14.12122 0.25276
C 13.34306 14.8459 -0.18633
C 14.58653 14.10294 0.32887
C 15.87023 14.83172 -0.10833
H 9.45767 14.15691 1.27692
H 12.02499 14.11695 1.36571
H 14.5531 14.09607 1.44174
H 10.84454 14.94043 -1.37273
H 13.37725 14.91469 -1.29715
H 15.90344 14.90439 -1.21887
C 15.82106 19.30132 -0.28582
C 14.54205 18.56535 0.17382
C 13.28521 19.31295 -0.33592
H 15.84164 19.32219 -1.40095
C 14.54886 17.10639 -0.34698
H 14.52097 18.54671 1.28906
C 13.27462 16.37702 0.10862
C 12.02116 17.11453 -0.39303
C 12.0069 18.57592 0.12432
H 14.56783 17.11231 -1.46023
H 13.30721 19.33067 -1.45103
H 11.98629 18.55984 1.23976
H 12.04161 17.11813 -1.50635
H 13.25451 16.30931 1.21983
C 15.8033 16.36508 0.15012
H 15.78562 16.29425 1.26108
C 10.74249 19.31635 -0.38494
C 10.75148 16.37947 0.06122
C 9.48233 18.55827 0.07589
C 9.50012 17.11273 -0.43332
H 10.75571 19.32835 -1.49919
H 9.414 18.55813 1.186
H 9.47337 17.10517 -1.5442
H 10.71965 16.30946 1.17098
C 20.87653 -5.87969 0.18461
C 23.41504 -5.89261 0.23875
C 22.15964 -5.14452 -0.27155
H 23.39203 -5.91365 1.35378
H 23.4674 -2.93111 -1.31631
C 23.44024 -2.95272 -0.20134
C 22.15508 -3.68776 0.25031
H 22.18439 -5.12506 -1.38659
C 20.90274 -2.9393 -0.266
C 19.61561 -3.67135 0.18637
C 19.62052 -5.13448 -0.32965
H 19.64787 -5.11869 -1.4447
H 20.85146 -5.89731 1.29958
H 22.12759 -3.70726 1.36524
H 20.93134 -2.92132 -1.38091
H 19.58846 -3.68723 1.3014
C 20.90067 -1.48219 0.25526
C 23.43691 -1.49695 0.32406
C 22.18802 -0.74751 -0.19329
C 19.65391 -0.73174 -0.26601
H 20.86891 -1.50038 1.3701
H 23.40722 -1.51842 1.43893
H 19.68792 -0.71507 -1.38111
H 22.21935 -0.72794 -1.30835
C 18.35839 -1.45902 0.18003
C 18.35958 -2.92172 -0.32993
C 18.33297 -5.87075 0.12442
C 17.13043 -0.68776 -0.34184
C 17.09044 -3.66805 0.12262
C 17.09551 -5.11138 -0.39005
H 17.11693 -0.68666 -1.454
H 18.31672 -1.47131 1.29354
H 18.37964 -2.9093 -1.44405
H 17.01462 -3.66949 1.2322
H 17.07444 -5.10951 -1.502
H 18.2982 -5.88284 1.23812
C 17.13813 0.75739 0.16872
C 18.41995 1.47768 -0.26282
C 19.65807 0.72922 0.25276
C 20.94206 1.4539 -0.18633
C 22.18553 0.71094 0.32887
C 23.46923 1.43972 -0.10833
H 17.05667 0.76491 1.27692
H 19.62399 0.72495 1.36571
H 22.1521 0.70407 1.44174
H 18.44354 1.54843 -1.37273
H 20.97625 1.52269 -1.29715
H 23.50244 1.51239 -1.21887
C 23.42006 5.90932 -0.28582
C 22.14105 5.17335 0.17382
C 20.88421 5.92095 -0.33592
H 23.44064 5.93019 -1.40095
C 22.14786 3.71439 -0.34698
H 22.11997 5.15471 1.28906
C 20.87362 2.98502 0.10862
C 19.62016 3.72253 -0.39303
C 19.6059 5.18392 0.12432
H 22.16683 3.72031 -1.46023
H 20.90621 5.93867 -1.45103
H 19.58529 5.16784 1.23976
H 19.64061 3.72613 -1.50635
H 20.85351 2.91731 1.21983
C 23.4023 2.97308 0.15012
H 23.38462 2.90225 1.26108
C 18.34149 5.92435 -0.38494
C 18.35048 2.98747 0.06122
C 17.08133 5.16627 0.07589
C 17.09912 3.72073 -0.43332
H 18.35471 5.93635 -1.49919
H 17.013 5.16613 1.186
H 17.07237 3.71317 -1.5442
H 18.31865 2.91746 1.17098
C 20.87653 7.51231 0.18461
C 23.41504 7.49939 0.23875
C 22.15964 8.24748 -0.27155
H 23.39203 7.47835 1.35378
H 23.4674 10.46089 -1.31631
C 23.44024 10.43928 -0.20134
C 22.15508 9.70424 0.25031
H 22.18439 8.26694 -1.38659
C 20.90274 10.4527 -0.266
C 19.61561 9.72065 0.18637
C 19.62052 8.25752 -0.32965
H 19.64787 8.27331 -1.4447
H 20.85146 7.49469 1.29958
H 22.12759 9.68474 1.36524
H 20.93134 10.47068 -1.38091
H 19.58846 9.70477 1.3014
C 20.90067 11.90981 0.25526
C 23.43691 11.89505 0.32406
C 22.18802 12.64449 -0.19329
C 19.65391 12.66026 -0.26601
H 20.86891 11.89162 1.3701
H 23.40722 11.87358 1.43893
H 19.68792 12.67693 -1.38111
H 22.21935 12.66406 -1.30835
C 18.35839 11.93298 0.18003
C 18.35958 10.47028 -0.32993
C 18.33297 7.52125 0.12442
C 17.13043 12.70424 -0.34184
C 17.09044 9.72395 0.12262
C 17.09551 8.28062 -0.39005
H 17.11693 12.70534 -1.454
H 18.31672 11.92069 1.29354
H 18.37964 10.4827 -1.44405
H 17.01462 9.72251 1.2322
H 17.07444 8.28249 -1.502
H 18.2982 7.50916 1.23812
C 17.13813 14.14939 0.16872
C 18.41995 14.86968 -0.26282
C 19.65807 14.12122 0.25276
C 20.94206 14.8459 -0.18633
C 22.18553 14.10294 0.32887
C 23.46923 14.83172 -0.10833
H 17.05667 14.15691 1.27692
H 19.62399 14.11695 1.36571
H 22.1521 14.09607 1.44174
H 18.44354 14.94043 -1.37273
H 20.97625 14.91469 -1.29715
H 23.50244 14.90439 -1.21887
C 23.42006 19.30132 -0.28582
C 22.14105 18.56535 0.17382
C 20.88421 19.31295 -0.33592
H 23.44064 19.32219 -1.40095
C 22.14786 17.10639 -0.34698
H 22.11997 18.54671 1.28906
C 20.87362 16.37702 0.10862
C 19.62016 17.11453 -0.39303
C 19.6059 18.57592 0.12432
H 22.16683 17.11231 -1.46023
H 20.90621 19.33067 -1.45103
H 19.58529 18.55984 1.23976
H 19.64061 17.11813 -1.50635
H 20.85351 16.30931 1.21983
C 23.4023 16.36508 0.15012
H 23.38462 16.29425 1.26108
C 18.34149 19.31635 -0.38494
C 18.35048 16.37947 0.06122
C 17.08133 18.55827 0.07589
C 17.09912 17.11273 -0.43332
H 18.35471 19.32835 -1.49919
H 17.013 18.55813 1.186
H 17.07237 17.10517 -1.5442
H 18.31865 16.30946 1.17098
C -1.92047 -5.87969 15.18461
C 0.61804 -5.89261 15.23875
C -0.63736 -5.14452 14.72845
H 0.59503 -5.91365 16.35378
H 0.6704 -2.93111 13.68369
C 0.64324 -2.95272 14.79866
C -0.64192 -3.68776 15.25031
H -0.61261 -5.12506 13.61341
C -1.89426 -2.9393 14.734
C -3.18139 -3.67135 15.18637
C -3.17648 -5.13448 14.67035
H -3.14913 -5.11869 13.5553
H -1.94554 -5.89731 16.29958
H -0.66941 -3.70726 16.36524
H -1.86566 -2.92132 13.61909
H -3.20854 -3.68723 16.3014
C -1.89633 -1.48219 15.25526
C 0.63991 -1.49695 15.32406
C -0.60898 -0.74751 14.80671
C -3.14309 -0.73174 14.73399
H -1.92809 -1.50038 16.3701
H 0.61022 -1.51842 16.43893
H -3.10908 -0.71507 13.61889
H -0.57765 -0.72794 13.69165
C -4.43861 -1.45902 15.18003
C -4.43742 -2.92172 14.67007
C -4.46403 -5.87075 15.12442
C -5.66657 -0.68776 14.65816
C -5.70656 -3.66805 15.12262
C -5.70149 -5.11138 14.60995
H -5.68007 -0.68666 13.546
H -4.48028 -1.47131 16.29354
H -4.41736 -2.9093 13.55595
H -5.78238 -3.66949 16.2322
H -5.72256 -5.10951 13.498
H -4.4988 -5.88284 16.23812
C -5.65887 0.75739 15.16872
C -4.37705 1.47768 14.73718
C -3.13893 0.72922 15.25276
C -1.85494 1.4539 14.81367
C -0.61147 0.71094 15.32887
C 0.67223 1.43972 14.89167
H -5.74033 0.76491 16.27692
H -3.17301 0.72495 16.36571
H -0.6449 0.70407 16.44174
H -4.35346 1.54843 13.62727
H -1.82075 1.52269 13.70285
H 0.70544 1.51239 13.78113
C 0.62306 5.90932 14.71418
C -0.65595 5.17335 15.17382
C -1.91279 5.92095 14.66408
H 0.64364 5.93019 13.59905
C -0.64914 3.71439 14.65302
H -0.67703 5.15471 16.28906
C -1.92338 2.98502 15.10862
C -3.17684 3.72253 14.60697
C -3.1911 5.18392 15.12432
H -0.63017 3.72031 13.53977
H -1.89079 5.93867 13.54897
H -3.21171 5.16784 16.23976
H -3.15639 3.72613 13.49365
H -1.94349 2.91731 16.21983
C 0.6053 2.97308 15.15012
H 0.58762 2.90225 16.26108
C -4.45551 5.92435 14.61506
C -4.44652 2.98747 15.06122
C -5.71567 5.16627 15.07589
C -5.69788 3.72073 14.56668
H -4.44229 5.93635 13.50081
H -5.784 5.16613 16.186
H -5.72463 3.71317 13.4558
H -4.47835 2.91746 16.17098
C -1.92047 7.51231 15.18461
C 0.61804 7.49939 15.23875
C -0.63736 8.24748 14.72845
H 0.59503 7.47835 16.35378
H 0.6704 10.46089 13.68369
C 0.64324 10.43928 14.79866
C -0.64192 9.70424 15.25031
H -0.61261 8.26694 13.61341
C -1.89426 10.4527 14.734
C -3.18139 9.72065 15.18637
C -3.17648 8.25752 14.67035
H -3.14913 8.27331 13.5553
H -1.94554 7.49469 16.29958
H -0.66941 9.68474 16.36524
H -1.86566 10.47068 13.61909
H -3.20854 9.70477 16.3014
C -1.89633 11.90981 15.25526
C 0.63991 11.89505 15.32406
C -0.60898 12.64449 14.80671
C -3.14309 12.66026 14.73399
H -1.92809 11.89162 16.3701
H 0.61022 11.87358 16.43893
H -3.10908 12.67693 13.61889
H -0.57765 12.66406 13.69165
C -4.43861 11.93298 15.18003
C -4.43742 10.47028 14.67007
C -4.46403 7.52125 15.12442
C -5.66657 12.70424 14.65816
C -5.70656 9.72395 15.12262
C -5.70149 8.28062 14.60995
H -5.68007 12.70534 13.546
H -4.48028 11.92069 16.29354
H -4.41736 10.4827 13.55595
H -5.78238 9.72251 16.2322
H -5.72256 8.28249 13.498
H -4.4988 7.50916 16.23812
C -5.65887 14.14939 15.16872
C -4.37705 14.86968 14.73718
C -3.13893 14.12122 15.25276
C -1.85494 14.8459 14.81367
C -0.61147 14.10294 15.32887
C 0.67223 14.83172 14.89167
H -5.74033 14.15691 16.27692
H -3.17301 14.11695 16.36571
H -0.6449 14.09607 16.44174
H -4.35346 14.94043 13.62727
H -1.82075 14.91469 13.70285
H 0.70544 14.90439 13.78113
C 0.62306 19.30132 14.71418
C -0.65595 18.56535 15.17382
C -1.91279 19.31295 14.66408
H 0.64364 19.32219 13.59905
C -0.64914 17.10639 14.65302
H -0.67703 18.54671 16.28906
C -1.92338 16.37702 15.10862
C -3.17684 17.11453 14.60697
C -3.1911 18.57592 15.12432
H -0.63017 17.11231 13.53977
H -1.89079 19.33067 13.54897
H -3.21171 18.55984 16.23976
H -3.15639 17.11813 13.49365
H -1.94349 16.30931 16.21983
C 0.6053 16.36508 15.15012
H 0.58762 16.29425 16.26108
C -4.45551 19.31635 14.61506
C -4.44652 16.37947 15.06122
C -5.71567 18.55827 15.07589
C -5.69788 17.11273 14.56668
H -4.44229 19.32835 13.50081
H -5.784 18.55813 16.186
H -5.72463 17.10517 13.4558
H -4.47835 16.30946 16.17098
C 5.67853 -5.87969 15.18461
C 8.21704 -5.89261 15.23875
C 6.96164 -5.14452 14.72845
H 8.19403 -5.91365 16.35378
H 8.2694 -2.93111 13.68369
C 8.24224 -2.95272 14.79866
C 6.95708 -3.68776 15.25031
H 6.98639 -5.12506 13.61341
C 5.70474 -2.9393 14.734
C 4.41761 -3.67135 15.18637
C 4.42252 -5.13448 14.67035
H 4.44987 -5.11869 13.5553
H 5.65346 -5.89731 16.29958
H 6.92959 -3.70726 16.36524
H 5.73334 -2.92132 13.61909
H 4.39046 -3.68723 16.3014
C 5.70267 -1.48219 15.25526
C 8.23891 -1.49695 15.32406
C 6.99002 -0.74751 14.80671
C 4.45591 -0.73174 14.73399
H 5.67091 -1.50038 16.3701
H 8.20922 -1.51842 16.43893
H 4.48992 -0.71507 13.61889
H 7.02135 -0.72794 13.69165
C 3.16039 -1.45902 15.18003
C 3.16158 -2.92172 14.67007
C 3.13497 -5.87075 15.12442
C 1.93243 -0.68776 14.65816
C 1.89244 -3.66805 15.12262
C 1.89751 -5.11138 14.60995
H 1.91893 -0.68666 13.546
H 3.11872 -1.47131 16.29354
H 3.18164 -2.9093 13.55595
H 1.81662 -3.66949 16.2322
H 1.87644 -5.10951 13.498
H 3.1002 -5.88284 16.23812
C 1.94013 0.75739 15.16872
C 3.22195 1.47768 14.73718
C 4.46007 0.72922 15.25276
C 5.74406 1.4539 14.81367
C 6.98753 0.71094 15.32887
C 8.27123 1.43972 14.89167
H 1.85867 0.76491 16.27692
H 4.42599 0.72495 16.36571
H 6.9541 0.70407 16.44174
H 3.24554 1.54843 13.62727
H 5.77825 1.52269 13.70285
H 8.30444 1.51239 13.78113
C 8.22206 5.90932 14.71418
C 6.94305 5.17335 15.17382
C 5.68621 5.92095 14.66408
H 8.24264 5.93019 13.59905
C 6.94986 3.71439 14.65302
H 6.92197 5.15471 16.28906
C 5.67562 2.98502 15.10862
C 4.42216 3.72253 14.60697
C 4.4079 5.18392 15.12432
H 6.96883 3.72031 13.53977
H 5.70821 5.93867 13.54897
H 4.38729 5.16784 16.23976
H 4.44261 3.72613 13.49365
H 5.65551 2.91731 16.21983
C 8.2043 2.97308 15.15012
H 8.18662 2.90225 16.26108
C 3.14349 5.92435 14.61506
C 3.15248 2.98747 15.06122
C 1.88333 5.16627 15.07589
C 1.90112 3.72073 14.56668
H 3.15671 5.93635 13.50081
H 1.815 5.16613 16.186
H 1.87437 3.71317 13.4558
H 3.12065 2.91746 16.17098
C 5.67853 7.51231 15.18461
C 8.21704 7.49939 15.23875
C 6.96164 8.24748 14.72845
H 8.19403 7.47835 16.35378
H 8.2694 10.46089 13.68369
C 8.24224 10.43928 14.79866
C 6.95708 9.70424 15.25031
H 6.98639 8.26694 13.61341
C 5.70474 10.4527 14.734
C 4.41761 9.72065 15.18637
C 4.42252 8.25752 14.67035
H 4.44987 8.27331 13.5553
H 5.65346 7.49469 16.29958
H 6.92959 9.68474 16.36524
H 5.73334 10.47068 13.61909
H 4.39046 9.70477 16.3014
C 5.70267 11.90981 15.25526
C 8.23891 11.89505 15.32406
C 6.99002 12.64449 14.80671
C 4.45591 12.66026 14.73399
H 5.67091 11.89162 16.3701
H 8.20922 11.87358 16.43893
H 4.48992 12.67693 13.61889
H 7.02135 12.66406 13.69165
C 3.16039 11.93298 15.18003
C 3.16158 10.47028 14.67007
C 3.13497 7.52125 15.12442
C 1.93243 12.70424 14.65816
C 1.89244 9.72395 15.12262
C 1.89751 8.28062 14.60995
H 1.91893 12.70534 13.546
H 3.11872 11.92069 16.29354
H 3.18164 10.4827 13.55595
H 1.81662 9.72251 16.2322
H 1.87644 8.28249 13.498
H 3.1002 7.50916 16.23812
C 1.94013 14.14939 15.16872
C 3.22195 14.86968 14.73718
C 4.46007 14.12122 15.25276
C 5.74406 14.8459 14.81367
C 6.98753 14.10294 15.32887
C 8.27123 14.83172 14.89167
H 1.85867 14.15691 16.27692
H 4.42599 14.11695 16.36571
H 6.9541 14.09607 16.44174
H 3.24554 14.94043 13.62727
H 5.77825 14.91469 13.70285
H 8.30444 14.90439 13.78113
C 8.22206 19.30132 14.71418
C 6.94305 18.56535 15.17382
C 5.68621 19.31295 14.66408
H 8.24264 19.32219 13.59905
C 6.94986 17.10639 14.65302
H 6.92197 18.54671 16.28906
C 5.67562 16.37702 15.10862
C 4.42216 17.11453 14.60697
C 4.4079 18.57592 15.12432
H 6.96883 17.11231 13.53977
H 5.70821 19.33067 13.54897
H 4.38729 18.55984 16.23976
H 4.44261 17.11813 13.49365
H 5.65551 16.30931 16.21983
C 8.2043 16.36508 15.15012
H 8.18662 16.29425 16.26108
C 3.14349 19.31635 14.61506
C 3.15248 16.37947 15.06122
C 1.88333 18.55827 15.07589
C 1.90112 17.11273 14.56668
H 3.15671 19.32835 13.50081
H 1.815 18.55813 16.186
H 1.87437 17.10517 13.4558
H 3.12065 16.30946 16.17098
C 13.27753 -5.87969 15.18461
C 15.81604 -5.89261 15.23875
C 14.56064 -5.14452 14.72845
H 15.79303 -5.91365 16.35378
H 15.8684 -2.93111 13.68369
C 15.84124 -2.95272 14.79866
C 14.55608 -3.68776 15.25031
H 14.58539 -5.12506 13.61341
C 13.30374 -2.9393 14.734
C 12.01661 -3.67135 15.18637
C 12.02152 -5.13448 14.67035
H 12.04887 -5.11869 13.5553
H 13.25246 -5.89731 16.29958
H 14.52859 -3.70726 16.36524
H 13.33234 -2.92132 13.61909
H 11.98946 -3.68723 16.3014
C 13.30167 -1.48219 15.25526
C 15.83791 -1.49695 15.32406
C 14.58902 -0.74751 14.80671
C 12.05491 -0.73174 14.73399
H 13.26991 -1.50038 16.3701
H 15.80822 -1.51842 16.43893
H 12.08892 -0.71507 13.61889
H 14.62035 -0.72794 13.69165
C 10.75939 -1.45902 15.18003
C 10.76058 -2.92172 14.67007
C 10.73397 -5.87075 15.12442
C 9.53143 -0.68776 14.65816
C 9.49144 -3.66805 15.12262
C 9.49651 -5.11138 14.60995
H 9.51793 -0.68666 13.546
H 10.71772 -1.47131 16.29354
H 10.78064 -2.9093 13.55595
H 9.41562 -3.66949 16.2322
H 9.47544 -5.10951 13.498
H 10.6992 -5.88284 16.23812
C 9.53913 0.75739 15.16872
C 10.82095 1.47768 14.73718
C 12.05907 0.72922 15.25276
C 13.34306 1.4539 14.81367
C 14.58653 0.71094 15.32887
C 15.87023 1.43972 14.89167
H 9.45767 0.76491 16.27692
H 12.02499 0.72495 16.36571
H 14.5531 0.70407 16.44174
H 10.84454 1.54843 13.62727
H 13.37725 1.52269 13.70285
H 15.90344 1.51239 13.78113
C 15.82106 5.90932 14.71418
C 14.54205 5.17335 15.17382
C 13.28521 5.92095 14.66408
H 15.84164 5.93019 13.59905
C 14.54886 3.71439 14.65302
H 14.52097 5.15471 16.28906
C 13.27462 2.98502 15.10862
C 12.02116 3.72253 14.60697
C 12.0069 5.18392 15.12432
H 14.56783 3.72031 13.53977
H 13.30721 5.93867 13.54897
H 11.98629 5.16784 16.23976
H 12.04161 3.72613 13.49365
H 13.25451 2.91731 16.21983
C 15.8033 2.97308 15.15012
H 15.78562 2.90225 16.26108
C 10.74249 5.92435 14.61506
C 10.75148 2.98747 15.06122
C 9.48233 5.16627 15.07589
C 9.50012 3.72073 14.56668
H 10.75571 5.93635 13.50081
H 9.414 5.16613 16.186
H 9.47337 3.71317 13.4558
H 10.71965 2.91746 16.17098
C 13.27753 7.51231 15.18461
C 15.81604 7.49939 15.23875
C 14.56064 8.24748 14.72845
H 15.79303 7.47835 16.35378
H 15.8684 10.46089 13.68369
C 15.84124 10.43928 14.79866
C 14.55608 9.70424 15.25031
H 14.58539 8.26694 13.61341
C 13.30374 10.4527 14.734
C 12.01661 9.72065 15.18637
C 12.02152 8.25752 14.67035
H 12.04887 8.27331 13.5553
H 13.25246 7.49469 16.29958
H 14.52859 9.68474 16.36524
H 13.33234 10.47068 13.61909
H 11.98946 9.70477 16.3014
C 13.30167 11.90981 15.25526
C 15.83791 11.89505 15.32406
C 14.58902 12.64449 14.80671
C 12.05491 12.66026 14.73399
H 13.26991 11.89162 16.3701
H 15.80822 11.87358 16.43893
H 12.08892 12.67693 13.61889
H 14.62035 12.66406 13.69165
C 10.75939 11.93298 15.18003
C 10.76058 10.47028 14.67007
C 10.73397 7.52125 15.12442
C 9.53143 12.70424 14.65816
C 9.49144 9.72395 15.12262
C 9.49651 8.28062 14.60995
H 9.51793 12.70534 13.546
H 10.71772 11.92069 16.29354
H 10.78064 10.4827 13.55595
H 9.41562 9.72251 16.2322
H 9.47544 8.28249 13.498
H 10.6992 7.50916 16.23812
C 9.53913 14.14939 15.16872
C 10.82095 14.86968 14.73718
C 12.05907 14.12122 15.25276
C 13.34306 14.8459 14.81367
C 14.58653 14.10294 15.32887
C 15.87023 14.83172 14.89167
H 9.45767 14.15691 16.27692
H 12.02499 14.11695 16.36571
H 14.5531 14.09607 16.44174
H 10.84454 14.94043 13.62727
H 13.37725 14.91469 13.70285
H 15.90344 14.90439 13.78113
C 15.82106 19.30132 14.71418
C 14.54205 18.56535 15.17382
C 13.28521 19.31295 14.66408
H 15.84164 19.32219 13.59905
C 14.54886 17.10639 14.65302
H 14.52097 18.54671 16.28906
C 13.27462 16.37702 15.10862
C 12.02116 17.11453 14.60697
C 12.0069 18.57592 15.12432
H 14.56783 17.11231 13.53977
H 13.30721 19.33067 13.54897
H 11.98629 18.55984 16.23976
H 12.04161 17.11813 13.49365
H 13.25451 16.30931 16.21983
C 15.8033 16.36508 15.15012
H 15.78562 16.29425 16.26108
C 10.74249 19.31635 14.61506
C 10.75148 16.37947 15.06122
C 9.48233 18.55827 15.07589
C 9.50012 17.11273 14.56668
H 10.75571 19.32835 13.50081
H 9.414 18.55813 16.186
H 9.47337 17.10517 13.4558
H 10.71965 16.30946 16.17098
C 20.87653 -5.87969 15.18461
C 23.41504 -5.89261 15.23875
C 22.15964 -5.14452 14.72845
H 23.39203 -5.91365 16.35378
H 23.4674 -2.93111 13.68369
C 23.44024 -2.95272 14.79866
C 22.15508 -3.68776 15.25031
H 22.18439 -5.12506 13.61341
C 20.90274 -2.9393 14.734
C 19.61561 -3.67135 15.18637
C 19.62052 -5.13448 14.67035
H 19.64787 -5.11869 13.5553
H 20.85146 -5.89731 16.29958
H 22.12759 -3.70726 16.36524
H 20.93134 -2.92132 13.61909
H 19.58846 -3.68723 16.3014
C 20.90067 -1.48219 15.25526
C 23.43691 -1.49695 15.32406
C 22.18802 -0.74751 14.80671
C 19.65391 -0.73174 14.73399
H 20.86891 -1.50038 16.3701
H 23.40722 -1.51842 16.43893
H 19.68792 -0.71507 13.61889
H 22.21935 -0.72794 13.69165
C 18.35839 -1.45902 15.18003
C 18.35958 -2.92172 14.67007
C 18.33297 -5.87075 15.12442
C 17.13043 -0.68776 14.65816
C 17.09044 -3.66805 15.12262
C 17.09551 -5.11138 14.60995
H 17.11693 -0.68666 13.546
H 18.31672 -1.47131 16.29354
H 18.37964 -2.9093 13.55595
H 17.01462 -3.66949 16.2322
H 17.07444 -5.10951 13.498
H 18.2982 -5.88284 16.23812
C 17.13813 0.75739 15.16872
C 18.41995 1.47768 14.73718
C 19.65807 0.72922 15.25276
C 20.94206 1.4539 14.81367
C 22.18553 0.71094 15.32887
C 23.46923 1.43972 14.89167
H 17.05667 0.76491 16.27692
H 19.62399 0.72495 16.36571
H 22.1521 0.70407 16.44174
H 18.44354 1.54843 13.62727
H 20.97625 1.52269 13.70285
H 23.50244 1.51239 13.78113
C 23.42006 5.90932 14.71418
C 22.14105 5.17335 15.17382
C 20.88421 5.92095 14.66408
H 23.44064 5.93019 13.59905
C 22.14786 3.71439 14.65302
H 22.11997 5.15471 16.28906
C 20.87362 2.98502 15.10862
C 19.62016 3.72253 14.60697
C 19.6059 5.18392 15.12432
H 22.16683 3.72031 13.53977
H 20.90621 5.93867 13.54897
H 19.58529 5.16784 16.23976
H 19.64061 3.72613 13.49365
H 20.85351 2.91731 16.21983
C 23.4023 2.97308 15.15012
H 23.38462 2.90225 16.26108
C 18.34149 5.92435 14.61506
C 18.35048 2.98747 15.06122
C 17.08133 5.16627 15.07589
C 17.09912 3.72073 14.56668
H 18.35471 5.93635 13.50081
H 17.013 5.16613 16.186
H 17.07237 3.71317 13.4558
H 18.31865 2.91746 16.17098
C 20.87653 7.51231 15.18461
C 23.41504 7.49939 15.23875
C 22.15964 8.24748 14.72845
H 23.39203 7.47835 16.35378
H 23.4674 10.46089 13.68369
C 23.44024 10.43928 14.79866
C 22.15508 9.70424 15.25031
H 22.18439 8.26694 13.61341
C 20.90274 10.4527 14.734
C 19.61561 9.72065 15.18637
C 19.62052 8.25752 14.67035
H 19.64787 8.27331 13.5553
H 20.85146 7.49469 16.29958
H 22.12759 9.68474 16.36524
H 20.93134 10.47068 13.61909
H 19.58846 9.70477 16.3014
C 20.90067 11.90981 15.25526
C 23.43691 11.89505 15.32406
C 22.18802 12.64449 14.80671
C 19.65391 12.66026 14.73399
H 20.86891 11.89162 16.3701
H 23.40722 11.87358 16.43893
H 19.68792 12.67693 13.61889
H 22.21935 12.66406 13.69165
C 18.35839 11.93298 15.18003
C 18.35958 10.47028 14.67007
C 18.33297 7.52125 15.12442
C 17.13043 12.70424 14.65816
C 17.09044 9.72395 15.12262
C 17.09551 8.28062 14.60995
H 17.11693 12.70534 13.546
H 18.31672 11.92069 16.29354
H 18.37964 10.4827 13.55595
H 17.01462 9.72251 16.2322
H 17.07444 8.28249 13.498
H 18.2982 7.50916 16.23812
C 17.13813 14.14939 15.16872
C 18.41995 14.86968 14.73718
C 19.65807 14.12122 15.25276
C 20.94206 14.8459 14.81367
C 22.18553 14.10294 15.32887
C 23.46923 14.83172 14.89167
H 17.05667 14.15691 16.27692
H 19.62399 14.11695 16.36571
H 22.1521 14.09607 16.44174
H 18.44354 14.94043 13.62727
H 20.97625 14.91469 13.70285
H 23.50244 14.90439 13.78113
C 23.42006 19.30132 14.71418
C 22.14105 18.56535 15.17382
C 20.88421 19.31295 14.66408
H 23.44064 19.32219 13.59905
C 22.14786 17.10639 14.65302
H 22.11997 18.54671 16.28906
C 20.87362 16.37702 15.10862
C 19.62016 17.11453 14.60697
C 19.6059 18.57592 15.12432
H 22.16683 17.11231 13.53977
H 20.90621 19.33067 13.54897
H 19.58529 18.55984 16.23976
H 19.64061 17.11813 13.49365
H 20.85351 16.30931 16.21983
C 23.4023 16.36508 15.15012
H 23.38462 16.29425 16.26108
C 18.34149 19.31635 14.61506
C 18.35048 16.37947 15.06122
C 17.08133 18.55827 15.07589
C 17.09912 17.11273 14.56668
H 18.35471 19.32835 13.50081
H 17.013 18.55813 16.186
H 17.07237 17.10517 13.4558
H 18.31865 16.30946 16.17098
