539

C         -6.96908       -5.59855       -7.13751
C         -4.43057       -5.61147       -7.08337
C         -5.68597       -4.86338       -7.59367
H         -4.45358       -5.63251       -5.96834
H         -4.37821       -2.64997       -8.63843
C         -4.40537       -2.67158       -7.52346
C         -5.69053       -3.40662       -7.07181
H         -5.66122       -4.84392       -8.70871
C         -6.94287       -2.65816       -7.58812
C         -8.23000       -3.39021       -7.13575
C         -8.22509       -4.85334       -7.65177
H         -8.19774       -4.83755       -8.76682
H         -6.99415       -5.61617       -6.02254
H         -5.71802       -3.42612       -5.95688
H         -6.91427       -2.64018       -8.70303
H         -8.25715       -3.40609       -6.02072
C         -6.94494       -1.20105       -7.06686
C         -4.40870       -1.21581       -6.99806
C         -5.65759       -0.46637       -7.51541
C         -8.19170       -0.45060       -7.58813
H         -6.97670       -1.21924       -5.95202
H         -8.15769       -0.43393       -8.70323
H         -5.62626       -0.44680       -8.63047
C         -9.48722       -1.17788       -7.14209
C         -9.48603       -2.64058       -7.65205
C         -9.51264       -5.58961       -7.19770
C        -10.71518       -0.40662       -7.66396
C        -10.75517       -3.38691       -7.19950
C        -10.75010       -4.83024       -7.71217
H        -10.72868       -0.40552       -8.77612
H         -9.52889       -1.19017       -6.02858
H         -9.46597       -2.62816       -8.76617
H        -10.83099       -3.38835       -6.08992
H        -10.77117       -4.82837       -8.82412
H         -9.54741       -5.60170       -6.08400
C        -10.70748        1.03853       -7.15340
C         -9.42566        1.75882       -7.58494
C         -8.18754        1.01036       -7.06936
C         -6.90355        1.73504       -7.50845
C         -5.66008        0.99208       -6.99325
C         -4.37638        1.72086       -7.43045
H        -10.78894        1.04605       -6.04520
H         -8.22162        1.00609       -5.95641
H         -5.69351        0.98521       -5.88038
H         -9.40207        1.82957       -8.69485
H         -6.86936        1.80383       -8.61927
H         -4.34317        1.79353       -8.54099
C         -4.42555        6.19046       -7.60794
C         -5.70456        5.45449       -7.14830
C         -6.96140        6.20209       -7.65804
H         -4.40497        6.21133       -8.72307
C         -5.69775        3.99553       -7.66910
H         -5.72564        5.43585       -6.03306
C         -6.97199        3.26616       -7.21350
C         -8.22545        4.00367       -7.71515
C         -8.23971        5.46506       -7.19780
H         -5.67878        4.00145       -8.78235
H         -6.93940        6.21981       -8.77315
H         -8.26032        5.44898       -6.08236
H         -8.20500        4.00727       -8.82847
H         -6.99210        3.19845       -6.10229
C         -4.44331        3.25422       -7.17200
H         -4.46099        3.18339       -6.06104
C         -9.50412        6.20549       -7.70706
C         -9.49513        3.26861       -7.26090
C        -10.76428        5.44741       -7.24623
C        -10.74649        4.00187       -7.75544
H         -9.49090        6.21749       -8.82131
H        -10.83261        5.44727       -6.13612
H        -10.77324        3.99431       -8.86632
H         -9.52696        3.19860       -6.15114
C          0.62992       -5.59855       -7.13751
C          3.16843       -5.61147       -7.08337
C          1.91303       -4.86338       -7.59367
H          3.14542       -5.63251       -5.96834
H          3.22079       -2.64997       -8.63843
C          3.19363       -2.67158       -7.52346
C          1.90847       -3.40662       -7.07181
H          1.93778       -4.84392       -8.70871
C          0.65613       -2.65816       -7.58812
C         -0.63100       -3.39021       -7.13575
C         -0.62609       -4.85334       -7.65177
H         -0.59874       -4.83755       -8.76682
H          0.60485       -5.61617       -6.02254
H          1.88098       -3.42612       -5.95688
H          0.68473       -2.64018       -8.70303
H         -0.65815       -3.40609       -6.02072
C          0.65406       -1.20105       -7.06686
C          3.19030       -1.21581       -6.99806
C          1.94141       -0.46637       -7.51541
C         -0.59270       -0.45060       -7.58813
H          0.62230       -1.21924       -5.95202
H          3.16061       -1.23728       -5.88319
H         -0.55869       -0.43393       -8.70323
H          1.97274       -0.44680       -8.63047
C         -1.88822       -1.17788       -7.14209
C         -1.88703       -2.64058       -7.65205
C         -1.91364       -5.58961       -7.19770
C         -3.11618       -0.40662       -7.66396
C         -3.15617       -3.38691       -7.19950
C         -3.15110       -4.83024       -7.71217
H         -3.12968       -0.40552       -8.77612
H         -1.92989       -1.19017       -6.02858
H         -1.86697       -2.62816       -8.76617
H         -3.23199       -3.38835       -6.08992
H         -3.17217       -4.82837       -8.82412
H         -1.94841       -5.60170       -6.08400
C         -3.10848        1.03853       -7.15340
C         -1.82666        1.75882       -7.58494
C         -0.58854        1.01036       -7.06936
C          0.69545        1.73504       -7.50845
C          1.93892        0.99208       -6.99325
C          3.22262        1.72086       -7.43045
H         -3.18994        1.04605       -6.04520
H         -0.62262        1.00609       -5.95641
H          1.90549        0.98521       -5.88038
H         -1.80307        1.82957       -8.69485
H          0.72964        1.80383       -8.61927
H          3.25583        1.79353       -8.54099
C          3.17345        6.19046       -7.60794
C          1.89444        5.45449       -7.14830
C          0.63760        6.20209       -7.65804
H          3.19403        6.21133       -8.72307
C          1.90125        3.99553       -7.66910
H          1.87336        5.43585       -6.03306
C          0.62701        3.26616       -7.21350
C         -0.62645        4.00367       -7.71515
C         -0.64071        5.46506       -7.19780
H          1.92022        4.00145       -8.78235
H          0.65960        6.21981       -8.77315
H         -0.66132        5.44898       -6.08236
H         -0.60600        4.00727       -8.82847
H          0.60690        3.19845       -6.10229
C          3.15569        3.25422       -7.17200
H          3.13801        3.18339       -6.06104
C         -1.90512        6.20549       -7.70706
C         -1.89613        3.26861       -7.26090
C         -3.16528        5.44741       -7.24623
C         -3.14749        4.00187       -7.75544
H         -1.89190        6.21749       -8.82131
H         -3.23361        5.44727       -6.13612
H         -3.17424        3.99431       -8.86632
H         -1.92796        3.19860       -6.15114
C          8.22892       -5.59855       -7.13751
C         10.76743       -5.61147       -7.08337
C          9.51203       -4.86338       -7.59367
H         10.74442       -5.63251       -5.96834
H         10.81979       -2.64997       -8.63843
C         10.79263       -2.67158       -7.52346
C          9.50747       -3.40662       -7.07181
H          9.53678       -4.84392       -8.70871
C          8.25513       -2.65816       -7.58812
C          6.96800       -3.39021       -7.13575
C          6.97291       -4.85334       -7.65177
H          7.00026       -4.83755       -8.76682
H          8.20385       -5.61617       -6.02254
H          9.47998       -3.42612       -5.95688
H          8.28373       -2.64018       -8.70303
H          6.94085       -3.40609       -6.02072
C          8.25306       -1.20105       -7.06686
C         10.78930       -1.21581       -6.99806
C          9.54041       -0.46637       -7.51541
C          7.00630       -0.45060       -7.58813
H          8.22130       -1.21924       -5.95202
H         10.75961       -1.23728       -5.88319
H          7.04031       -0.43393       -8.70323
H          9.57174       -0.44680       -8.63047
C          5.71078       -1.17788       -7.14209
C          5.71197       -2.64058       -7.65205
C          5.68536       -5.58961       -7.19770
C          4.48282       -0.40662       -7.66396
C          4.44283       -3.38691       -7.19950
C          4.44790       -4.83024       -7.71217
H          4.46932       -0.40552       -8.77612
H          5.66911       -1.19017       -6.02858
H          5.73203       -2.62816       -8.76617
H          4.36701       -3.38835       -6.08992
H          4.42683       -4.82837       -8.82412
H          5.65059       -5.60170       -6.08400
C          4.49052        1.03853       -7.15340
C          5.77234        1.75882       -7.58494
C          7.01046        1.01036       -7.06936
C          8.29445        1.73504       -7.50845
C          9.53792        0.99208       -6.99325
C         10.82162        1.72086       -7.43045
H          4.40906        1.04605       -6.04520
H          6.97638        1.00609       -5.95641
H          9.50449        0.98521       -5.88038
H          5.79593        1.82957       -8.69485
H          8.32864        1.80383       -8.61927
H         10.85483        1.79353       -8.54099
C         10.77245        6.19046       -7.60794
C          9.49344        5.45449       -7.14830
C          8.23660        6.20209       -7.65804
H         10.79303        6.21133       -8.72307
C          9.50025        3.99553       -7.66910
H          9.47236        5.43585       -6.03306
C          8.22601        3.26616       -7.21350
C          6.97255        4.00367       -7.71515
C          6.95829        5.46506       -7.19780
H          9.51922        4.00145       -8.78235
H          8.25860        6.21981       -8.77315
H          6.93768        5.44898       -6.08236
H          6.99300        4.00727       -8.82847
H          8.20590        3.19845       -6.10229
C         10.75469        3.25422       -7.17200
H         10.73701        3.18339       -6.06104
C          5.69388        6.20549       -7.70706
C          5.70287        3.26861       -7.26090
C          4.43372        5.44741       -7.24623
C          4.45151        4.00187       -7.75544
H          5.70710        6.21749       -8.82131
H          4.36539        5.44727       -6.13612
H          4.42476        3.99431       -8.86632
H          5.67104        3.19860       -6.15114
C         -6.96908       -5.59855        7.86249
C         -4.43057       -5.61147        7.91663
C         -5.68597       -4.86338        7.40633
H         -4.45358       -5.63251        9.03166
H         -4.37821       -2.64997        6.36157
C         -4.40537       -2.67158        7.47654
C         -5.69053       -3.40662        7.92819
H         -5.66122       -4.84392        6.29129
C         -6.94287       -2.65816        7.41188
C         -8.23000       -3.39021        7.86425
C         -8.22509       -4.85334        7.34823
H         -8.19774       -4.83755        6.23318
H         -6.99415       -5.61617        8.97746
H         -5.71802       -3.42612        9.04312
H         -6.91427       -2.64018        6.29697
H         -8.25715       -3.40609        8.97928
C         -6.94494       -1.20105        7.93314
C         -4.40870       -1.21581        8.00194
C         -5.65759       -0.46637        7.48459
C         -8.19170       -0.45060        7.41187
H         -6.97670       -1.21924        9.04798
H         -4.43839       -1.23728        9.11681
H         -8.15769       -0.43393        6.29677
H         -5.62626       -0.44680        6.36953
C         -9.48722       -1.17788        7.85791
C         -9.48603       -2.64058        7.34795
C         -9.51264       -5.58961        7.80230
C        -10.71518       -0.40662        7.33604
C        -10.75517       -3.38691        7.80050
C        -10.75010       -4.83024        7.28783
H        -10.72868       -0.40552        6.22388
H         -9.52889       -1.19017        8.97142
H         -9.46597       -2.62816        6.23383
H        -10.83099       -3.38835        8.91008
H        -10.77117       -4.82837        6.17588
H         -9.54741       -5.60170        8.91600
C        -10.70748        1.03853        7.84660
C         -9.42566        1.75882        7.41506
C         -8.18754        1.01036        7.93064
C         -6.90355        1.73504        7.49155
C         -5.66008        0.99208        8.00675
C         -4.37638        1.72086        7.56955
H        -10.78894        1.04605        8.95480
H         -8.22162        1.00609        9.04359
H         -5.69351        0.98521        9.11962
H         -9.40207        1.82957        6.30515
H         -6.86936        1.80383        6.38073
H         -4.34317        1.79353        6.45901
C         -4.42555        6.19046        7.39206
C         -5.70456        5.45449        7.85170
C         -6.96140        6.20209        7.34196
H         -4.40497        6.21133        6.27693
C         -5.69775        3.99553        7.33090
H         -5.72564        5.43585        8.96694
C         -6.97199        3.26616        7.78650
C         -8.22545        4.00367        7.28485
C         -8.23971        5.46506        7.80220
H         -5.67878        4.00145        6.21765
H         -6.93940        6.21981        6.22685
H         -8.26032        5.44898        8.91764
H         -8.20500        4.00727        6.17153
H         -6.99210        3.19845        8.89771
C         -4.44331        3.25422        7.82800
H         -4.46099        3.18339        8.93896
C         -9.50412        6.20549        7.29294
C         -9.49513        3.26861        7.73910
C        -10.76428        5.44741        7.75377
C        -10.74649        4.00187        7.24456
H         -9.49090        6.21749        6.17869
H        -10.83261        5.44727        8.86388
H        -10.77324        3.99431        6.13368
H         -9.52696        3.19860        8.84886
C          0.62992       -5.59855        7.86249
C          3.16843       -5.61147        7.91663
C          1.91303       -4.86338        7.40633
H          3.14542       -5.63251        9.03166
H          3.22079       -2.64997        6.36157
C          3.19363       -2.67158        7.47654
C          1.90847       -3.40662        7.92819
H          1.93778       -4.84392        6.29129
C          0.65613       -2.65816        7.41188
C         -0.63100       -3.39021        7.86425
C         -0.62609       -4.85334        7.34823
H         -0.59874       -4.83755        6.23318
H          0.60485       -5.61617        8.97746
H          1.88098       -3.42612        9.04312
H          0.68473       -2.64018        6.29697
H         -0.65815       -3.40609        8.97928
C          0.65406       -1.20105        7.93314
C          3.19030       -1.21581        8.00194
C          1.94141       -0.46637        7.48459
C         -0.59270       -0.45060        7.41187
H          0.62230       -1.21924        9.04798
H          3.16061       -1.23728        9.11681
H         -0.55869       -0.43393        6.29677
H          1.97274       -0.44680        6.36953
C         -1.88822       -1.17788        7.85791
C         -1.88703       -2.64058        7.34795
C         -1.91364       -5.58961        7.80230
C         -3.11618       -0.40662        7.33604
C         -3.15617       -3.38691        7.80050
C         -3.15110       -4.83024        7.28783
H         -3.12968       -0.40552        6.22388
H         -1.92989       -1.19017        8.97142
H         -1.86697       -2.62816        6.23383
H         -3.23199       -3.38835        8.91008
H         -3.17217       -4.82837        6.17588
H         -1.94841       -5.60170        8.91600
C         -3.10848        1.03853        7.84660
C         -1.82666        1.75882        7.41506
C         -0.58854        1.01036        7.93064
C          0.69545        1.73504        7.49155
C          1.93892        0.99208        8.00675
C          3.22262        1.72086        7.56955
H         -3.18994        1.04605        8.95480
H         -0.62262        1.00609        9.04359
H          1.90549        0.98521        9.11962
H         -1.80307        1.82957        6.30515
H          0.72964        1.80383        6.38073
H          3.25583        1.79353        6.45901
C          3.17345        6.19046        7.39206
C          1.89444        5.45449        7.85170
C          0.63760        6.20209        7.34196
H          3.19403        6.21133        6.27693
C          1.90125        3.99553        7.33090
H          1.87336        5.43585        8.96694
C          0.62701        3.26616        7.78650
C         -0.62645        4.00367        7.28485
C         -0.64071        5.46506        7.80220
H          1.92022        4.00145        6.21765
H          0.65960        6.21981        6.22685
H         -0.66132        5.44898        8.91764
H         -0.60600        4.00727        6.17153
H          0.60690        3.19845        8.89771
C          3.15569        3.25422        7.82800
H          3.13801        3.18339        8.93896
C         -1.90512        6.20549        7.29294
C         -1.89613        3.26861        7.73910
C         -3.16528        5.44741        7.75377
C         -3.14749        4.00187        7.24456
H         -1.89190        6.21749        6.17869
H         -3.23361        5.44727        8.86388
H         -3.17424        3.99431        6.13368
H         -1.92796        3.19860        8.84886
C          8.22892       -5.59855        7.86249
C         10.76743       -5.61147        7.91663
C          9.51203       -4.86338        7.40633
H         10.74442       -5.63251        9.03166
H         10.81979       -2.64997        6.36157
C         10.79263       -2.67158        7.47654
C          9.50747       -3.40662        7.92819
H          9.53678       -4.84392        6.29129
C          8.25513       -2.65816        7.41188
C          6.96800       -3.39021        7.86425
C          6.97291       -4.85334        7.34823
H          7.00026       -4.83755        6.23318
H          8.20385       -5.61617        8.97746
H          9.47998       -3.42612        9.04312
H          8.28373       -2.64018        6.29697
H          6.94085       -3.40609        8.97928
C          8.25306       -1.20105        7.93314
C         10.78930       -1.21581        8.00194
C          9.54041       -0.46637        7.48459
C          7.00630       -0.45060        7.41187
H          8.22130       -1.21924        9.04798
H         10.75961       -1.23728        9.11681
H          7.04031       -0.43393        6.29677
H          9.57174       -0.44680        6.36953
C          5.71078       -1.17788        7.85791
C          5.71197       -2.64058        7.34795
C          5.68536       -5.58961        7.80230
C          4.48282       -0.40662        7.33604
C          4.44283       -3.38691        7.80050
C          4.44790       -4.83024        7.28783
H          4.46932       -0.40552        6.22388
H          5.66911       -1.19017        8.97142
H          5.73203       -2.62816        6.23383
H          4.36701       -3.38835        8.91008
H          4.42683       -4.82837        6.17588
H          5.65059       -5.60170        8.91600
C          4.49052        1.03853        7.84660
C          5.77234        1.75882        7.41506
C          7.01046        1.01036        7.93064
C          8.29445        1.73504        7.49155
C          9.53792        0.99208        8.00675
C         10.82162        1.72086        7.56955
H          4.40906        1.04605        8.95480
H          6.97638        1.00609        9.04359
H          9.50449        0.98521        9.11962
H          5.79593        1.82957        6.30515
H          8.32864        1.80383        6.38073
H         10.85483        1.79353        6.45901
C         10.77245        6.19046        7.39206
C          9.49344        5.45449        7.85170
C          8.23660        6.20209        7.34196
H         10.79303        6.21133        6.27693
C          9.50025        3.99553        7.33090
H          9.47236        5.43585        8.96694
C          8.22601        3.26616        7.78650
C          6.97255        4.00367        7.28485
C          6.95829        5.46506        7.80220
H          9.51922        4.00145        6.21765
H          8.25860        6.21981        6.22685
H          6.93768        5.44898        8.91764
H          6.99300        4.00727        6.17153
H          8.20590        3.19845        8.89771
C         10.75469        3.25422        7.82800
H         10.73701        3.18339        8.93896
C          5.69388        6.20549        7.29294
C          5.70287        3.26861        7.73910
C          4.43372        5.44741        7.75377
C          4.45151        4.00187        7.24456
H          5.70710        6.21749        6.17869
H          4.36539        5.44727        8.86388
H          4.42476        3.99431        6.13368
H          5.67104        3.19860        8.84886
N         -6.46866       -2.55783       -1.04725
H         -5.63915       -3.05013       -0.70360
H         -7.28669       -3.10195       -0.75807
H         -6.51407       -1.65451       -0.56815
C         -6.44016       -2.37559       -2.53109
H         -6.59441       -3.35998       -2.97234
H         -7.30701       -1.75960       -2.77280
C         -5.14567       -1.75070       -3.04206
H         -4.33426       -2.48579       -2.98348
H         -4.85900       -0.88717       -2.43336
C         -5.46537       -1.36018       -4.48941
H         -6.13928       -2.14006       -4.83474
H         -6.05020       -0.43797       -4.46055
C         -4.26467       -1.23248       -5.43395
H         -3.61126       -2.06179       -5.16493
H         -3.71371       -0.34715       -5.11632
O         -0.71616       -3.79379        0.20212
H         -0.97729       -4.44950        0.82443
H         -1.35703       -3.84036       -0.50356
O         -6.18901       -5.10689        1.75529
H          0.77795       -7.17780        0.29666
H         -6.05705       -6.07175        1.56021
O          0.75047      -14.32476       -0.56625
H         -0.14813      -14.49711       -0.24257
H          1.11919      -15.18845       -0.80506
O         -6.72646        5.71445       -3.78619
H         -6.40791        5.96323       -2.91348
H         -7.45504        6.32325       -3.97336
O         -7.75441        0.02718       -0.82046
H         -7.63674        0.61234       -0.02931
H         -8.65596       -0.18587       -1.06356
O         -7.24425        2.47852        0.96101
H         -7.55878        1.84342        1.65141
H         -6.36228        2.72352        1.28863
O         -3.10275       -0.62056       -0.16252
H         -3.53331       -0.83268        0.69023
H         -2.20758       -0.33268        0.01008
O          7.31481       -0.15401       -2.99878
H          7.06890       -1.06026       -3.23644
H          7.86641       -0.19264       -2.19848
O        -13.74942      -19.57292        2.27824
H        -14.42898      -18.88830        2.08722
H        -14.21918      -20.27782        2.74901
O         -2.60762       -5.15962        1.38780
H         -2.54868       -6.08131        1.08008
H         -3.34450       -4.67203        0.88772
O         -4.96054       -5.11085       -3.42985
H         -4.77624       -5.98313       -3.05615
H         -4.60797       -4.52893       -2.71797
O          8.49471        3.03957        0.82639
H          8.75112        2.56203        0.01706
H          7.51938        3.04102        0.68723
O         20.14201        5.39522        0.31688
H         20.03261        4.80495        1.05690
H         21.02335        5.83334        0.37154
O          1.65385        9.92973       -2.19403
H          1.34136        9.53534       -1.35008
H          2.54757       10.30785       -2.04380
O         10.09606        1.80919       -1.40488
H          9.66563        0.96451       -1.63665
H         10.55403        2.02576       -2.23056
O          2.42908       -6.70205       -1.19354
H          2.06767       -7.57627       -0.88570
H          1.81291       -6.25715       -1.78624
O         -4.46433       -3.76113        0.03904
H         -3.72946       -3.34247       -0.53598
H         -5.39531       -4.66265        1.24153
O        -11.99509       -3.88948       -3.61553
H        -11.29047       -4.38193       -4.06189
H        -12.27173       -4.45611       -2.87066
O        -12.28929        1.05245        2.29510
H        -12.04368        0.19784        1.91391
H        -12.82622        1.54140        1.66553
O         -1.22558       -0.04211        1.86321
H         -0.46205       -0.51567        2.23172
H         -2.01607       -0.27490        2.37024
O         -5.98499       -2.02092        1.31626
H         -5.26511       -2.66655        1.04342
H         -6.27031       -1.99011        2.23684
O          4.25894        4.51612       -2.25835
H          4.00849        5.10961       -1.50931
H          3.94854        4.96751       -3.05198
O         14.08170       -4.03451        0.81182
H         13.48170       -4.80252        1.02038
H         14.96425       -4.44307        1.09715
O         -2.09629       -6.05362        4.06202
H         -2.24382       -5.33863        3.41573
H         -2.81831       -6.02546        4.69951
O          7.15733        4.97185        2.50542
H          7.94657        4.98819        1.94042
H          7.15390        4.14155        3.01736
O        -11.64696       -0.87001       -3.02234
H        -10.99057       -1.13638       -3.68237
H        -12.14025       -1.68529       -2.88688
O         24.58069       -9.31405       -0.82221
H         23.63871       -9.54420       -0.95994
H         25.09242       -9.34112       -1.65709
O         12.40599       11.71325        0.35947
H         13.02499       11.08212        0.74768
H         12.30370       11.60035       -0.60090
O         -4.98181        5.10160       -1.84005
H         -4.50745        4.38013       -2.27975
H         -4.62133        5.12007       -0.93861
O         14.48856        6.29468        0.38834
H         14.49704        5.55173       -0.23639
H         14.13977        5.84446        1.17712
O         -0.02288       -7.39804        0.77618
H          0.14551       -7.90145        1.60873
